<?xml version="1.0" encoding="UTF-8"?>

<!-- generated on 2024-05-20 21:22:52.078561 by osmWebWizard.py v1_19_0+0000-baa66a0f364
<configuration>
    <net-file value="C:\Users\jaehyeok\Sumo\2024-05-20-21-22-44\osm.net.xml.gz"/>
    <output-trip-file value="C:\Users\jaehyeok\Sumo\2024-05-20-21-22-44\osm.passenger.trips.xml"/>
    <route-file value="C:\Users\jaehyeok\Sumo\2024-05-20-21-22-44\osm.passenger.rou.xml"/>
    <prefix value="veh"/>
    <trip-attributes value="departLane=&quot;random&quot;"/>
    <fringe-start-attributes value="departSpeed=&quot;max&quot;"/>
    <vehicle-class value="passenger"/>
    <lanes value="True"/>
    <fringe-factor value="5"/>
    <allow-fringe.min-length value="1000.0"/>
    <via-edge-types value="highway.motorway,highway.motorway_link,highway.trunk_link,highway.primary_link,highway.secondary_link,highway.tertiary_link"/>
    <min-distance value="300.0"/>
    <min-distance.fringe value="10.0"/>
    <remove-loops value="True"/>
    <validate value="True"/>
    <insertion-density value="12.0"/>
</configuration>
-->

<!-- generated on 2024-05-20 21:22:51 by Eclipse SUMO duarouter Version 1.19.0
<configuration xmlns:xsi="http://www.w3.org/2001/XMLSchema-instance" xsi:noNamespaceSchemaLocation="http://sumo.dlr.de/xsd/duarouterConfiguration.xsd">

    <input>
        <net-file value="C:\Users\jaehyeok\Sumo\2024-05-20-21-22-44\osm.net.xml.gz"/>
        <route-files value="C:\Users\jaehyeok\Sumo\2024-05-20-21-22-44\osm.passenger.trips.xml"/>
    </input>

    <output>
        <output-file value="C:\Users\jaehyeok\Sumo\2024-05-20-21-22-44\osm.passenger.trips.xml.tmp"/>
        <alternatives-output value="NUL"/>
        <write-trips value="true"/>
    </output>

    <processing>
        <remove-loops value="true"/>
    </processing>

    <time>
        <begin value="0.0"/>
        <end value="3600.0"/>
    </time>

    <report>
        <no-warnings value="true"/>
        <ignore-errors value="true"/>
        <no-step-log value="true"/>
    </report>

</configuration>
-->

<routes xmlns:xsi="http://www.w3.org/2001/XMLSchema-instance" xsi:noNamespaceSchemaLocation="http://sumo.dlr.de/xsd/routes_file.xsd">
    <vType id="veh_passenger" vClass="passenger"/>
    <trip id="veh0" type="veh_passenger" depart="0.00" departLane="random" from="-4402014#3" to="-1136657258#0"/>
    <trip id="veh1" type="veh_passenger" depart="0.00" departLane="random" departSpeed="max" from="-194069450#2" to="-1155762025#1"/>
    <trip id="veh2" type="veh_passenger" depart="0.00" departLane="random" departSpeed="max" from="-1105574291#1" to="-24913267#2"/>
    <trip id="veh3" type="veh_passenger" depart="0.00" departLane="random" from="326116286#0" to="1105574291#0"/>
    <trip id="veh4" type="veh_passenger" depart="0.00" departLane="random" departSpeed="max" from="-326116285#3" to="-24913267#2"/>
    <trip id="veh5" type="veh_passenger" depart="0.00" departLane="random" departSpeed="max" from="753316505#0" to="1105574291#0"/>
    <trip id="veh6" type="veh_passenger" depart="0.00" departLane="random" from="-1132162834#0" to="-23755739#0"/>
    <trip id="veh7" type="veh_passenger" depart="0.00" departLane="random" from="326116286#0" to="24242882#1"/>
    <trip id="veh8" type="veh_passenger" depart="0.00" departLane="random" departSpeed="max" from="-194069450#2" to="-681299267#0"/>
    <trip id="veh9" type="veh_passenger" depart="0.00" departLane="random" departSpeed="max" from="-1110749960#1" to="1190781963#1"/>
    <trip id="veh10" type="veh_passenger" depart="0.00" departLane="random" from="196850607#0" to="1105574291#1"/>
    <trip id="veh11" type="veh_passenger" depart="0.00" departLane="random" from="-35557143#2" to="-24913267#3"/>
    <trip id="veh12" type="veh_passenger" depart="0.00" departLane="random" from="24913267#3" to="4588219#3"/>
    <trip id="veh13" type="veh_passenger" depart="0.00" departLane="random" departSpeed="max" from="1116360926#0" to="196850608#1"/>
    <trip id="veh14" type="veh_passenger" depart="0.00" departLane="random" departSpeed="max" from="-194069450#2" to="-1136657258#0"/>
    <trip id="veh15" type="veh_passenger" depart="0.00" departLane="random" departSpeed="max" from="-326116285#3" to="-4588219#1"/>
    <trip id="veh16" type="veh_passenger" depart="0.00" departLane="random" departSpeed="max" from="-194069450#2" to="-1136657258#0"/>
    <trip id="veh17" type="veh_passenger" depart="0.00" departLane="random" from="196850608#0" to="1110749960#1"/>
    <trip id="veh18" type="veh_passenger" depart="0.00" departLane="random" departSpeed="max" from="1116360926#0" to="4402014#3"/>
    <trip id="veh19" type="veh_passenger" depart="0.00" departLane="random" departSpeed="max" from="-389101365#2" to="-292429056#2"/>
    <trip id="veh20" type="veh_passenger" depart="0.00" departLane="random" from="-1132162834#0" to="-1155762025#1"/>
    <trip id="veh21" type="veh_passenger" depart="0.00" departLane="random" departSpeed="max" from="-1132163645#1" to="194069450#0"/>
    <trip id="veh23" type="veh_passenger" depart="0.00" departLane="random" from="1110748916#1" to="-24913267#2"/>
    <trip id="veh24" type="veh_passenger" depart="0.00" departLane="random" departSpeed="max" from="753316505#0" to="389101365#1"/>
    <trip id="veh25" type="veh_passenger" depart="0.00" departLane="random" departSpeed="max" from="-326116285#3" to="194069450#0"/>
    <trip id="veh26" type="veh_passenger" depart="0.00" departLane="random" departSpeed="max" from="24913267#0" to="1249342905"/>
    <trip id="veh27" type="veh_passenger" depart="0.00" departLane="random" departSpeed="max" from="24913267#0" to="1249342905"/>
    <trip id="veh28" type="veh_passenger" depart="0.00" departLane="random" departSpeed="max" from="-1105574291#1" to="-4588219#1"/>
    <trip id="veh29" type="veh_passenger" depart="0.00" departLane="random" from="-1115641285#1" to="1132163645#1"/>
    <trip id="veh30" type="veh_passenger" depart="0.00" departLane="random" departSpeed="max" from="-1110749960#1" to="326116285#0"/>
    <trip id="veh31" type="veh_passenger" depart="0.00" departLane="random" from="-874528353#1" to="1249342905"/>
    <trip id="veh32" type="veh_passenger" depart="0.00" departLane="random" departSpeed="max" from="-1132163645#1" to="-292429056#2"/>
    <trip id="veh33" type="veh_passenger" depart="0.00" departLane="random" departSpeed="max" from="-326116285#3" to="194069450#0"/>
    <trip id="veh34" type="veh_passenger" depart="0.00" departLane="random" departSpeed="max" from="-194069450#2" to="-292429056#2"/>
    <trip id="veh35" type="veh_passenger" depart="0.00" departLane="random" departSpeed="max" from="-1110749960#1" to="194069450#0"/>
    <trip id="veh36" type="veh_passenger" depart="0.00" departLane="random" departSpeed="max" from="-194069450#2" to="-1176516118#0"/>
    <trip id="veh37" type="veh_passenger" depart="0.00" departLane="random" departSpeed="max" from="753316505#0" to="171423001#2"/>
    <trip id="veh38" type="veh_passenger" depart="0.00" departLane="random" from="874528353#1" to="326116285#0"/>
    <trip id="veh40" type="veh_passenger" depart="0.00" departLane="random" from="-4402014#3" to="1132163645#1"/>
    <trip id="veh41" type="veh_passenger" depart="0.00" departLane="random" departSpeed="max" from="23755739#0" to="196850608#0"/>
    <trip id="veh42" type="veh_passenger" depart="0.00" departLane="random" from="874528353#1" to="-23755739#0"/>
    <trip id="veh43" type="veh_passenger" depart="0.00" departLane="random" from="4588219#1" to="35557143#3"/>
    <trip id="veh44" type="veh_passenger" depart="0.00" departLane="random" from="168935756#0" to="1116360587#1"/>
    <trip id="veh45" type="veh_passenger" depart="0.00" departLane="random" from="-4402014#3" to="-4588219#2"/>
    <trip id="veh46" type="veh_passenger" depart="0.00" departLane="random" departSpeed="max" from="-194069450#2" to="-4588219#1"/>
    <trip id="veh47" type="veh_passenger" depart="0.00" departLane="random" from="-4588220#1" to="389101365#1"/>
    <trip id="veh48" type="veh_passenger" depart="0.00" departLane="random" departSpeed="max" from="1116360926#0" to="-1155764611#0"/>
    <trip id="veh49" type="veh_passenger" depart="0.00" departLane="random" departSpeed="max" from="-389101365#2" to="-1176516118#0"/>
    <trip id="veh50" type="veh_passenger" depart="0.00" departLane="random" from="-24242882#1" to="326116285#0"/>
    <trip id="veh52" type="veh_passenger" depart="0.00" departLane="random" departSpeed="max" from="753316505#0" to="882389497#1"/>
    <trip id="veh53" type="veh_passenger" depart="0.00" departLane="random" departSpeed="max" from="-1110749960#1" to="171423001#3"/>
    <trip id="veh54" type="veh_passenger" depart="0.00" departLane="random" from="1110748916#1" to="35557143#3"/>
    <trip id="veh55" type="veh_passenger" depart="0.00" departLane="random" departSpeed="max" from="-1110749960#1" to="-24913267#2"/>
    <trip id="veh56" type="veh_passenger" depart="0.00" departLane="random" departSpeed="max" from="-194069450#2" to="-23755739#0"/>
    <trip id="veh57" type="veh_passenger" depart="0.00" departLane="random" from="47935842" to="35557143#2"/>
    <trip id="veh58" type="veh_passenger" depart="0.00" departLane="random" from="1176516118#1" to="194069450#0"/>
    <trip id="veh59" type="veh_passenger" depart="0.00" departLane="random" from="-4402014#3" to="171423001#3"/>
    <trip id="veh60" type="veh_passenger" depart="0.00" departLane="random" departSpeed="max" from="-194069450#2" to="1110749960#1"/>
    <trip id="veh61" type="veh_passenger" depart="0.00" departLane="random" from="196850608#2" to="-681299268#1"/>
    <trip id="veh62" type="veh_passenger" depart="0.00" departLane="random" departSpeed="max" from="-326116285#3" to="292429056#1"/>
    <trip id="veh63" type="veh_passenger" depart="0.00" departLane="random" departSpeed="max" from="-1110749960#1" to="-24913267#3"/>
    <trip id="veh64" type="veh_passenger" depart="0.00" departLane="random" from="4588220#0" to="389101365#1"/>
    <trip id="veh65" type="veh_passenger" depart="0.00" departLane="random" from="-35557143#2" to="-24913267#2"/>
    <trip id="veh66" type="veh_passenger" depart="0.00" departLane="random" from="-35557143#2" to="-681299268#1"/>
    <trip id="veh67" type="veh_passenger" depart="0.00" departLane="random" from="-1136657258#0" to="-23755739#0"/>
    <trip id="veh68" type="veh_passenger" depart="0.00" departLane="random" departSpeed="max" from="23755739#0" to="-24913267#2"/>
    <trip id="veh110" color="1,0,1" type="veh_passenger" depart="0.00" departLane="random" from="196850607#0" to="1105574291#1"/>
    <trip id="veh111" color="1,0,1" type="veh_passenger" depart="0.00" departLane="random" from="-35557143#2" to="-24913267#3"/>
    <trip id="veh112" color="1,0,1" type="veh_passenger" depart="0.00" departLane="random" from="24913267#3" to="4588219#3"/>
    <trip id="veh113" color="1,0,1" type="veh_passenger" depart="0.00" departLane="random" departSpeed="max" from="1116360926#0" to="196850608#1"/>
    <trip id="veh114" color="1,0,1" type="veh_passenger" depart="0.00" departLane="random" departSpeed="max" from="-194069450#2" to="-1136657258#0"/>
    <trip id="veh115" color="1,0,1" type="veh_passenger" depart="0.00" departLane="random" departSpeed="max" from="-326116285#3" to="-4588219#1"/>
    <trip id="veh116" color="1,0,1" type="veh_passenger" depart="0.00" departLane="random" departSpeed="max" from="-194069450#2" to="-1136657258#0"/>
    <trip id="veh117" color="1,0,1" type="veh_passenger" depart="0.00" departLane="random" from="196850608#0" to="1110749960#1"/>
    <trip id="veh118" color="1,0,1" type="veh_passenger" depart="0.00" departLane="random" departSpeed="max" from="1116360926#0" to="4402014#3"/>
    <trip id="veh119" color="1,0,1" type="veh_passenger" depart="0.00" departLane="random" departSpeed="max" from="-389101365#2" to="-292429056#2"/>
    <trip id="veh120" color="1,0,1" type="veh_passenger" depart="0.00" departLane="random" from="-1132162834#0" to="-1155762025#1"/>
    <trip id="veh121" color="1,0,1" type="veh_passenger" depart="0.00" departLane="random" departSpeed="max" from="-1132163645#1" to="194069450#0"/>
    <trip id="veh123" color="1,0,1" type="veh_passenger" depart="0.00" departLane="random" from="1110748916#1" to="-24913267#2"/>
    <trip id="veh124" color="1,0,1" type="veh_passenger" depart="0.00" departLane="random" departSpeed="max" from="753316505#0" to="389101365#1"/>
    <trip id="veh125" color="1,0,1" type="veh_passenger" depart="0.00" departLane="random" departSpeed="max" from="-326116285#3" to="194069450#0"/>
    <trip id="veh126" color="1,0,1" type="veh_passenger" depart="0.00" departLane="random" departSpeed="max" from="24913267#0" to="1249342905"/>
    <trip id="veh127" color="1,0,1" type="veh_passenger" depart="0.00" departLane="random" departSpeed="max" from="24913267#0" to="1249342905"/>
    <trip id="veh128" color="1,0,1" type="veh_passenger" depart="0.00" departLane="random" departSpeed="max" from="-1105574291#1" to="-4588219#1"/>
    <trip id="veh129" color="1,0,1" type="veh_passenger" depart="0.00" departLane="random" from="-1115641285#1" to="1132163645#1"/>
    <trip id="veh130" color="1,0,1" type="veh_passenger" depart="0.00" departLane="random" departSpeed="max" from="-1110749960#1" to="326116285#0"/>
    <trip id="veh131" color="1,0,1" type="veh_passenger" depart="0.00" departLane="random" from="-874528353#1" to="1249342905"/>
    <trip id="veh132" color="1,0,1" type="veh_passenger" depart="0.00" departLane="random" departSpeed="max" from="-1132163645#1" to="-292429056#2"/>
    <trip id="veh133" color="1,0,1" type="veh_passenger" depart="0.00" departLane="random" departSpeed="max" from="-326116285#3" to="194069450#0"/>
    <trip id="veh134" color="1,0,1" type="veh_passenger" depart="0.00" departLane="random" departSpeed="max" from="-194069450#2" to="-292429056#2"/>
    <trip id="veh135" color="1,0,1" type="veh_passenger" depart="0.00" departLane="random" departSpeed="max" from="-1110749960#1" to="194069450#0"/>
    <trip id="veh136" color="1,0,1" type="veh_passenger" depart="0.00" departLane="random" departSpeed="max" from="-194069450#2" to="-1176516118#0"/>
    <trip id="veh137" color="1,0,1" type="veh_passenger" depart="0.00" departLane="random" departSpeed="max" from="753316505#0" to="171423001#2"/>
    <trip id="veh138" color="1,0,1" type="veh_passenger" depart="0.00" departLane="random" from="874528353#1" to="326116285#0"/>
    <trip id="veh140" color="1,0,1" type="veh_passenger" depart="0.00" departLane="random" from="-4402014#3" to="1132163645#1"/>
    <trip id="veh141" color="1,0,1" type="veh_passenger" depart="0.00" departLane="random" departSpeed="max" from="23755739#0" to="196850608#0"/>
    <trip id="veh142" color="1,0,1" type="veh_passenger" depart="0.00" departLane="random" from="874528353#1" to="-23755739#0"/>
    <trip id="veh143" color="1,0,1" type="veh_passenger" depart="0.00" departLane="random" from="4588219#1" to="35557143#3"/>
    <trip id="veh144" color="1,0,1" type="veh_passenger" depart="0.00" departLane="random" from="168935756#0" to="1116360587#1"/>
    <trip id="veh145" color="1,0,1" type="veh_passenger" depart="0.00" departLane="random" from="-4402014#3" to="-4588219#2"/>
    <trip id="veh146" color="1,0,1" type="veh_passenger" depart="0.00" departLane="random" departSpeed="max" from="-194069450#2" to="-4588219#1"/>
    <trip id="veh147" color="1,0,1" type="veh_passenger" depart="0.00" departLane="random" from="-4588220#1" to="389101365#1"/>
    <trip id="veh148" color="1,0,1" type="veh_passenger" depart="0.00" departLane="random" departSpeed="max" from="1116360926#0" to="-1155764611#0"/>
    <trip id="veh149" color="1,0,1" type="veh_passenger" depart="0.00" departLane="random" departSpeed="max" from="-389101365#2" to="-1176516118#0"/>
    <trip id="veh150" color="1,0,1" type="veh_passenger" depart="0.00" departLane="random" from="-24242882#1" to="326116285#0"/>
    <trip id="veh152" color="1,0,1" type="veh_passenger" depart="0.00" departLane="random" departSpeed="max" from="753316505#0" to="882389497#1"/>
    <trip id="veh153" color="1,0,1" type="veh_passenger" depart="0.00" departLane="random" departSpeed="max" from="-1110749960#1" to="171423001#3"/>
    <trip id="veh154" color="1,0,1" type="veh_passenger" depart="0.00" departLane="random" from="1110748916#1" to="35557143#3"/>
    <trip id="veh155" color="1,0,1" type="veh_passenger" depart="0.00" departLane="random" departSpeed="max" from="-1110749960#1" to="-24913267#2"/>
    <trip id="veh156" color="1,0,1" type="veh_passenger" depart="0.00" departLane="random" departSpeed="max" from="-194069450#2" to="-23755739#0"/>
    <trip id="veh157" color="1,0,1" type="veh_passenger" depart="0.00" departLane="random" from="47935842" to="35557143#2"/>
    <trip id="veh158" color="1,0,1" type="veh_passenger" depart="0.00" departLane="random" from="1176516118#1" to="194069450#0"/>
    <trip id="veh159" color="1,0,1" type="veh_passenger" depart="0.00" departLane="random" from="-4402014#3" to="171423001#3"/>
    <trip id="veh160" color="1,0,1" type="veh_passenger" depart="0.00" departLane="random" departSpeed="max" from="-194069450#2" to="1110749960#1"/>
    <trip id="veh161" color="1,0,1" type="veh_passenger" depart="0.00" departLane="random" from="196850608#2" to="-681299268#1"/>
    <trip id="veh162" color="1,0,1" type="veh_passenger" depart="0.00" departLane="random" departSpeed="max" from="-326116285#3" to="292429056#1"/>
    <trip id="veh163" color="1,0,1" type="veh_passenger" depart="0.00" departLane="random" departSpeed="max" from="-1110749960#1" to="-24913267#3"/>
    <trip id="veh164" color="1,0,1" type="veh_passenger" depart="0.00" departLane="random" from="4588220#0" to="389101365#1"/>
    <trip id="veh165" color="1,0,1" type="veh_passenger" depart="0.00" departLane="random" from="-35557143#2" to="-24913267#2"/>
    <trip id="veh166" color="1,0,1" type="veh_passenger" depart="0.00" departLane="random" from="-35557143#2" to="-681299268#1"/>
    <trip id="veh167" color="1,0,1" type="veh_passenger" depart="0.00" departLane="random" from="-1136657258#0" to="-23755739#0"/>
    <trip id="veh168" color="1,0,1" type="veh_passenger" depart="0.00" departLane="random" departSpeed="max" from="23755739#0" to="-24913267#2"/>

    <trip id="veh1110" color="1,1,1" type="veh_passenger" depart="0.00" departLane="random" from="196850607#0" to="1105574291#1"/>
    <trip id="veh1111" color="1,1,1" type="veh_passenger" depart="0.00" departLane="random" from="-35557143#2" to="-24913267#3"/>
    <trip id="veh1112" color="1,1,1" type="veh_passenger" depart="0.00" departLane="random" from="24913267#3" to="4588219#3"/>
    <trip id="veh1113" color="1,1,1" type="veh_passenger" depart="0.00" departLane="random" departSpeed="max" from="1116360926#0" to="196850608#1"/>
    <trip id="veh1114" color="1,1,1" type="veh_passenger" depart="0.00" departLane="random" departSpeed="max" from="-194069450#2" to="-1136657258#0"/>
    <trip id="veh1115" color="1,1,1" type="veh_passenger" depart="0.00" departLane="random" departSpeed="max" from="-326116285#3" to="-4588219#1"/>
    <trip id="veh1116" color="1,1,1" type="veh_passenger" depart="0.00" departLane="random" departSpeed="max" from="-194069450#2" to="-1136657258#0"/>
    <trip id="veh1117" color="1,1,1" type="veh_passenger" depart="0.00" departLane="random" from="196850608#0" to="1110749960#1"/>
    <trip id="veh1118" color="1,1,1" type="veh_passenger" depart="0.00" departLane="random" departSpeed="max" from="1116360926#0" to="4402014#3"/>
    <trip id="veh1119" color="1,1,1" type="veh_passenger" depart="0.00" departLane="random" departSpeed="max" from="-389101365#2" to="-292429056#2"/>
    <trip id="veh1120" color="1,1,1" type="veh_passenger" depart="0.00" departLane="random" from="-1132162834#0" to="-1155762025#1"/>
    <trip id="veh1121" color="1,1,1" type="veh_passenger" depart="0.00" departLane="random" departSpeed="max" from="-1132163645#1" to="194069450#0"/>
    <trip id="veh1123" color="1,1,1" type="veh_passenger" depart="0.00" departLane="random" from="1110748916#1" to="-24913267#2"/>
    <trip id="veh1124" color="1,1,1" type="veh_passenger" depart="0.00" departLane="random" departSpeed="max" from="753316505#0" to="389101365#1"/>
    <trip id="veh1125" color="1,1,1" type="veh_passenger" depart="0.00" departLane="random" departSpeed="max" from="-326116285#3" to="194069450#0"/>
    <trip id="veh1126" color="1,1,1" type="veh_passenger" depart="0.00" departLane="random" departSpeed="max" from="24913267#0" to="1249342905"/>
    <trip id="veh1127" color="1,1,1" type="veh_passenger" depart="0.00" departLane="random" departSpeed="max" from="24913267#0" to="1249342905"/>
    <trip id="veh1128" color="1,1,1" type="veh_passenger" depart="0.00" departLane="random" departSpeed="max" from="-1105574291#1" to="-4588219#1"/>
    <trip id="veh1129" color="1,1,1" type="veh_passenger" depart="0.00" departLane="random" from="-1115641285#1" to="1132163645#1"/>
    <trip id="veh1130" color="1,1,1" type="veh_passenger" depart="0.00" departLane="random" departSpeed="max" from="-1110749960#1" to="326116285#0"/>
    <trip id="veh1131" color="1,1,1" type="veh_passenger" depart="0.00" departLane="random" from="-874528353#1" to="1249342905"/>
    <trip id="veh1132" color="1,1,1" type="veh_passenger" depart="0.00" departLane="random" departSpeed="max" from="-1132163645#1" to="-292429056#2"/>
    <trip id="veh1133" color="1,1,1" type="veh_passenger" depart="0.00" departLane="random" departSpeed="max" from="-326116285#3" to="194069450#0"/>
    <trip id="veh1134" color="1,1,1" type="veh_passenger" depart="0.00" departLane="random" departSpeed="max" from="-194069450#2" to="-292429056#2"/>
    <trip id="veh1135" color="1,1,1" type="veh_passenger" depart="0.00" departLane="random" departSpeed="max" from="-1110749960#1" to="194069450#0"/>
    <trip id="veh1136" color="1,1,1" type="veh_passenger" depart="0.00" departLane="random" departSpeed="max" from="-194069450#2" to="-1176516118#0"/>
    <trip id="veh1137" color="1,1,1" type="veh_passenger" depart="0.00" departLane="random" departSpeed="max" from="753316505#0" to="171423001#2"/>
    <trip id="veh1138" color="1,1,1" type="veh_passenger" depart="0.00" departLane="random" from="874528353#1" to="326116285#0"/>
    <trip id="veh1140" color="1,1,1" type="veh_passenger" depart="0.00" departLane="random" from="-4402014#3" to="1132163645#1"/>
    <trip id="veh1141" color="1,1,1" type="veh_passenger" depart="0.00" departLane="random" departSpeed="max" from="23755739#0" to="196850608#0"/>
    <trip id="veh1142" color="1,1,1" type="veh_passenger" depart="0.00" departLane="random" from="874528353#1" to="-23755739#0"/>
    <trip id="veh1143" color="1,1,1" type="veh_passenger" depart="0.00" departLane="random" from="4588219#1" to="35557143#3"/>
    <trip id="veh1144" color="1,1,1" type="veh_passenger" depart="0.00" departLane="random" from="168935756#0" to="1116360587#1"/>
    <trip id="veh1145" color="1,1,1" type="veh_passenger" depart="0.00" departLane="random" from="-4402014#3" to="-4588219#2"/>
    <trip id="veh1146" color="1,1,1" type="veh_passenger" depart="0.00" departLane="random" departSpeed="max" from="-194069450#2" to="-4588219#1"/>
    <trip id="veh1147" color="1,1,1" type="veh_passenger" depart="0.00" departLane="random" from="-4588220#1" to="389101365#1"/>
    <trip id="veh1148" color="1,1,1" type="veh_passenger" depart="0.00" departLane="random" departSpeed="max" from="1116360926#0" to="-1155764611#0"/>
    <trip id="veh1149" color="1,1,1" type="veh_passenger" depart="0.00" departLane="random" departSpeed="max" from="-389101365#2" to="-1176516118#0"/>
    <trip id="veh1150" color="1,1,1" type="veh_passenger" depart="0.00" departLane="random" from="-24242882#1" to="326116285#0"/>
    <trip id="veh1152" color="1,1,1" type="veh_passenger" depart="0.00" departLane="random" departSpeed="max" from="753316505#0" to="882389497#1"/>
    <trip id="veh1153" color="1,1,1" type="veh_passenger" depart="0.00" departLane="random" departSpeed="max" from="-1110749960#1" to="171423001#3"/>
    <trip id="veh1154" color="1,1,1" type="veh_passenger" depart="0.00" departLane="random" from="1110748916#1" to="35557143#3"/>
    <trip id="veh1155" color="1,1,1" type="veh_passenger" depart="0.00" departLane="random" departSpeed="max" from="-1110749960#1" to="-24913267#2"/>
    <trip id="veh1156" color="1,1,1" type="veh_passenger" depart="0.00" departLane="random" departSpeed="max" from="-194069450#2" to="-23755739#0"/>
    <trip id="veh1157" color="1,1,1" type="veh_passenger" depart="0.00" departLane="random" from="47935842" to="35557143#2"/>
    <trip id="veh1158" color="1,1,1" type="veh_passenger" depart="0.00" departLane="random" from="1176516118#1" to="194069450#0"/>
    <trip id="veh1159" color="1,1,1" type="veh_passenger" depart="0.00" departLane="random" from="-4402014#3" to="171423001#3"/>
    <trip id="veh1160" color="1,1,1" type="veh_passenger" depart="0.00" departLane="random" departSpeed="max" from="-194069450#2" to="1110749960#1"/>
    <trip id="veh1161" color="1,1,1" type="veh_passenger" depart="0.00" departLane="random" from="196850608#2" to="-681299268#1"/>
    <trip id="veh1162" color="1,1,1" type="veh_passenger" depart="0.00" departLane="random" departSpeed="max" from="-326116285#3" to="292429056#1"/>
    <trip id="veh1163" color="1,1,1" type="veh_passenger" depart="0.00" departLane="random" departSpeed="max" from="-1110749960#1" to="-24913267#3"/>
    <trip id="veh1164" color="1,1,1" type="veh_passenger" depart="0.00" departLane="random" from="4588220#0" to="389101365#1"/>
    <trip id="veh1165" color="1,1,1" type="veh_passenger" depart="0.00" departLane="random" from="-35557143#2" to="-24913267#2"/>
    <trip id="veh1166" color="1,1,1" type="veh_passenger" depart="0.00" departLane="random" from="-35557143#2" to="-681299268#1"/>
    <trip id="veh1167" color="1,1,1" type="veh_passenger" depart="0.00" departLane="random" from="-1136657258#0" to="-23755739#0"/>
    <trip id="veh1168" color="1,1,1" type="veh_passenger" depart="0.00" departLane="random" departSpeed="max" from="23755739#0" to="-24913267#2"/>


    <trip id="ve1h1110" color="1,0,0" type="veh_passenger" depart="0.00" departLane="random" from="196850607#0" to="1105574291#1"/>
    <trip id="ve1h1111" color="1,0,0" type="veh_passenger" depart="0.00" departLane="random" from="-35557143#2" to="-24913267#3"/>
    <trip id="ve1h1112" color="1,0,0" type="veh_passenger" depart="0.00" departLane="random" from="24913267#3" to="4588219#3"/>
    <trip id="ve1h1113" color="1,0,0" type="veh_passenger" depart="0.00" departLane="random" departSpeed="max" from="1116360926#0" to="196850608#1"/>
    <trip id="ve1h1114" color="1,0,0" type="veh_passenger" depart="0.00" departLane="random" departSpeed="max" from="-194069450#2" to="-1136657258#0"/>
    <trip id="ve1h1115" color="1,0,0" type="veh_passenger" depart="0.00" departLane="random" departSpeed="max" from="-326116285#3" to="-4588219#1"/>
    <trip id="ve1h1116" color="1,0,0" type="veh_passenger" depart="0.00" departLane="random" departSpeed="max" from="-194069450#2" to="-1136657258#0"/>
    <trip id="ve1h1117" color="1,0,0" type="veh_passenger" depart="0.00" departLane="random" from="196850608#0" to="1110749960#1"/>
    <trip id="ve1h1118" color="1,0,0" type="veh_passenger" depart="0.00" departLane="random" departSpeed="max" from="1116360926#0" to="4402014#3"/>
    <trip id="ve1h1119" color="1,0,0" type="veh_passenger" depart="0.00" departLane="random" departSpeed="max" from="-389101365#2" to="-292429056#2"/>
    <trip id="ve1h1120" color="1,0,0" type="veh_passenger" depart="0.00" departLane="random" from="-1132162834#0" to="-1155762025#1"/>
    <trip id="ve1h1121" color="1,0,0" type="veh_passenger" depart="0.00" departLane="random" departSpeed="max" from="-1132163645#1" to="194069450#0"/>
    <trip id="ve1h1123" color="1,0,0" type="veh_passenger" depart="0.00" departLane="random" from="1110748916#1" to="-24913267#2"/>
    <trip id="ve1h1124" color="1,0,0" type="veh_passenger" depart="0.00" departLane="random" departSpeed="max" from="753316505#0" to="389101365#1"/>
    <trip id="ve1h1125" color="1,0,0" type="veh_passenger" depart="0.00" departLane="random" departSpeed="max" from="-326116285#3" to="194069450#0"/>
    <trip id="ve1h1126" color="1,0,0" type="veh_passenger" depart="0.00" departLane="random" departSpeed="max" from="24913267#0" to="1249342905"/>
    <trip id="ve1h1127" color="1,0,0" type="veh_passenger" depart="0.00" departLane="random" departSpeed="max" from="24913267#0" to="1249342905"/>
    <trip id="ve1h1128" color="1,0,0" type="veh_passenger" depart="0.00" departLane="random" departSpeed="max" from="-1105574291#1" to="-4588219#1"/>
    <trip id="ve1h1129" color="1,0,0" type="veh_passenger" depart="0.00" departLane="random" from="-1115641285#1" to="1132163645#1"/>
    <trip id="ve1h1130" color="1,0,0" type="veh_passenger" depart="0.00" departLane="random" departSpeed="max" from="-1110749960#1" to="326116285#0"/>
    <trip id="ve1h1131" color="1,0,0" type="veh_passenger" depart="0.00" departLane="random" from="-874528353#1" to="1249342905"/>
    <trip id="ve1h1132" color="1,0,0" type="veh_passenger" depart="0.00" departLane="random" departSpeed="max" from="-1132163645#1" to="-292429056#2"/>
    <trip id="ve1h1133" color="1,0,0" type="veh_passenger" depart="0.00" departLane="random" departSpeed="max" from="-326116285#3" to="194069450#0"/>
    <trip id="ve1h1134" color="1,0,0" type="veh_passenger" depart="0.00" departLane="random" departSpeed="max" from="-194069450#2" to="-292429056#2"/>