<?xml version="1.0" encoding="UTF-8"?>

<!-- generated on 2024-05-21 07:01:02.173810 by osmWebWizard.py v1_19_0+0000-baa66a0f364
<configuration>
    <net-file value="C:\Users\jaehyeok\Sumo\2024-05-21-07-00-45\osm.net.xml.gz"/>
    <output-trip-file value="C:\Users\jaehyeok\Sumo\2024-05-21-07-00-45\osm.passenger.trips.xml"/>
    <route-file value="C:\Users\jaehyeok\Sumo\2024-05-21-07-00-45\osm.passenger.rou.xml"/>
    <prefix value="veh"/>
    <trip-attributes value="departLane=&quot;best&quot;"/>
    <fringe-start-attributes value="departSpeed=&quot;max&quot;"/>
    <vehicle-class value="passenger"/>
    <lanes value="True"/>
    <fringe-factor value="5"/>
    <allow-fringe.min-length value="1000.0"/>
    <via-edge-types value="highway.motorway,highway.motorway_link,highway.trunk_link,highway.primary_link,highway.secondary_link,highway.tertiary_link"/>
    <min-distance value="300.0"/>
    <min-distance.fringe value="10.0"/>
    <remove-loops value="True"/>
    <validate value="True"/>
    <insertion-density value="12.0"/>
</configuration>
-->

<!-- generated on 2024-05-21 07:00:59 by Eclipse SUMO duarouter Version 1.19.0
<configuration xmlns:xsi="http://www.w3.org/2001/XMLSchema-instance" xsi:noNamespaceSchemaLocation="http://sumo.dlr.de/xsd/duarouterConfiguration.xsd">

    <input>
        <net-file value="C:\Users\jaehyeok\Sumo\2024-05-21-07-00-45\osm.net.xml.gz"/>
        <route-files value="C:\Users\jaehyeok\Sumo\2024-05-21-07-00-45\osm.passenger.trips.xml"/>
    </input>

    <output>
        <output-file value="C:\Users\jaehyeok\Sumo\2024-05-21-07-00-45\osm.passenger.trips.xml.tmp"/>
        <alternatives-output value="NUL"/>
        <write-trips value="true"/>
    </output>

    <processing>
        <remove-loops value="true"/>
    </processing>

    <time>
        <begin value="0.0"/>
        <end value="3600.0"/>
    </time>

    <report>
        <no-warnings value="true"/>
        <ignore-errors value="true"/>
        <no-step-log value="true"/>
    </report>

</configuration>
-->

<routes xmlns:xsi="http://www.w3.org/2001/XMLSchema-instance" xsi:noNamespaceSchemaLocation="http://sumo.dlr.de/xsd/routes_file.xsd">
    <vType id="veh_passenger" vClass="passenger"/>
    <trip id="veh0" type="veh_passenger" depart="0.00" departLane="best" from="321499529#2" to="-182129431#1"/>
    <trip id="veh1" type="veh_passenger" depart="0.43" departLane="best" departSpeed="max" from="-525074963#1" to="-452166249#1"/>
    <trip id="veh2" type="veh_passenger" depart="0.86" departLane="best" from="384325732" to="-37400463#2"/>
    <trip id="veh3" type="veh_passenger" depart="1.29" departLane="best" from="553207533#1" to="313031073#10"/>
    <trip id="veh4" type="veh_passenger" depart="1.72" departLane="best" from="228781863#1" to="228340943#2"/>
    <trip id="veh5" type="veh_passenger" depart="2.15" departLane="best" departSpeed="max" from="-406404308#1" to="311965295#3"/>
    <trip id="veh6" type="veh_passenger" depart="2.58" departLane="best" from="166211648#8" to="-391673010#1"/>
    <trip id="veh7" type="veh_passenger" depart="3.02" departLane="best" from="367287219#3" to="314841805#1"/>
    <trip id="veh8" type="veh_passenger" depart="3.45" departLane="best" from="-429770747#1" to="315306678#4"/>
    <trip id="veh10" type="veh_passenger" depart="4.31" departLane="best" from="-487613728#0" to="377004280#1"/>
    <trip id="veh11" type="veh_passenger" depart="4.74" departLane="best" from="1035568424" to="-37400463#4"/>
    <trip id="veh13" type="veh_passenger" depart="5.60" departLane="best" from="-313031073#1" to="-314809029#3"/>
    <trip id="veh14" type="veh_passenger" depart="6.03" departLane="best" from="525074931#5" to="317091482#3"/>
    <trip id="veh15" type="veh_passenger" depart="6.46" departLane="best" from="-487613735#0" to="384325732"/>
    <trip id="veh16" type="veh_passenger" depart="6.89" departLane="best" from="312895043#3" to="911412832#3-AddedOnRampEdge"/>
    <trip id="veh17" type="veh_passenger" depart="7.32" departLane="best" from="165485222#0" to="314841809"/>
    <trip id="veh18" type="veh_passenger" depart="7.75" departLane="best" from="493014176#4" to="321497219#2"/>
    <trip id="veh19" type="veh_passenger" depart="8.19" departLane="best" from="525074957" to="315171751#2-AddedOnRampEdge"/>
    <trip id="veh20" type="veh_passenger" depart="8.62" departLane="best" departSpeed="max" from="377004281#0" to="-228781900#4"/>
    <trip id="veh21" type="veh_passenger" depart="9.05" departLane="best" from="-452166245" to="-669435104#1"/>
    <trip id="veh23" type="veh_passenger" depart="9.91" departLane="best" from="-314752444#2" to="-559023914#3"/>
    <trip id="veh24" type="veh_passenger" depart="10.34" departLane="best" from="-321499523#0" to="165485222#0"/>
    <trip id="veh25" type="veh_passenger" depart="10.77" departLane="best" from="1215393144#0-AddedOnRampEdge" to="406372581#1"/>
    <trip id="veh26" type="veh_passenger" depart="11.20" departLane="best" from="524657924#0" to="700820211#1-AddedOffRampEdge"/>
    <trip id="veh27" type="veh_passenger" depart="11.63" departLane="best" from="367287219#2-AddedOffRampEdge" to="317191829#3"/>
    <trip id="veh28" type="veh_passenger" depart="12.06" departLane="best" departSpeed="max" from="-37401583#10" to="384325731"/>
    <trip id="veh30" type="veh_passenger" depart="12.92" departLane="best" from="989312046#2" to="367287219#2-AddedOnRampEdge"/>
    <trip id="veh31" type="veh_passenger" depart="13.35" departLane="best" from="314841806#1" to="37401042#6"/>
    <trip id="veh32" type="veh_passenger" depart="13.79" departLane="best" from="525074927#2" to="429771754"/>
    <trip id="veh33" type="veh_passenger" depart="14.22" departLane="best" from="-452166247#1" to="-228781852#1"/>
    <trip id="veh34" type="veh_passenger" depart="14.65" departLane="best" from="-71397841#2" to="-553207532#7"/>
    <trip id="veh35" type="veh_passenger" depart="15.08" departLane="best" from="-406204672#0" to="71397829"/>
    <trip id="veh36" type="veh_passenger" depart="15.51" departLane="best" from="525074926#1" to="-901040443#0"/>
    <trip id="veh39" type="veh_passenger" depart="16.80" departLane="best" from="-493079374#3" to="-487634597#1"/>
    <trip id="veh40" type="veh_passenger" depart="17.23" departLane="best" from="315171751#2-AddedOnRampEdge" to="553207533#4"/>
    <trip id="veh42" type="veh_passenger" depart="18.09" departLane="best" from="989774305#1" to="311965295#5"/>
    <trip id="veh43" type="veh_passenger" depart="18.52" departLane="best" from="-313031071#1" to="-228781903#0"/>
    <trip id="veh44" type="veh_passenger" depart="18.96" departLane="best" from="-316712980#2" to="321499523#0"/>
    <trip id="veh45" type="veh_passenger" depart="19.39" departLane="best" from="-452166246#0" to="228781894#0"/>
    <trip id="veh47" type="veh_passenger" depart="20.25" departLane="best" from="-989323727" to="314341192#6-AddedOnRampEdge"/>
    <trip id="veh48" type="veh_passenger" depart="20.68" departLane="best" departSpeed="max" from="911412830#0" to="525074955#0-AddedOnRampEdge"/>
    <trip id="veh49" type="veh_passenger" depart="21.11" departLane="best" from="-1103598049#0" to="311791473#6"/>
    <trip id="veh50" type="veh_passenger" depart="21.54" departLane="best" from="37400461#3" to="314752444#5"/>
    <trip id="veh51" type="veh_passenger" depart="21.97" departLane="best" from="-524657923" to="367287219#4"/>
    <trip id="veh52" type="veh_passenger" depart="22.40" departLane="best" from="-317091478#7" to="525074967#5"/>
    <trip id="veh54" type="veh_passenger" depart="23.26" departLane="best" from="525074964#1" to="525074960#3"/>
    <trip id="veh55" type="veh_passenger" depart="23.69" departLane="best" from="310801005#10" to="377031113#3"/>
    <trip id="veh56" type="veh_passenger" depart="24.13" departLane="best" from="600968888" to="-525074960#2"/>
    <trip id="veh57" type="veh_passenger" depart="24.56" departLane="best" from="559023919#6" to="367287219#2-AddedOffRampEdge"/>
    <trip id="veh58" type="veh_passenger" depart="24.99" departLane="best" from="317091481#2" to="-37400461#1"/>
    <trip id="veh59" type="veh_passenger" depart="25.42" departLane="best" from="406372600#7" to="-314809029#4"/>
    <trip id="veh60" type="veh_passenger" depart="25.85" departLane="best" from="429770765#1" to="314341194#3"/>
    <trip id="veh61" type="veh_passenger" depart="26.28" departLane="best" from="-165485222#1" to="669435117#0"/>
    <trip id="veh62" type="veh_passenger" depart="26.71" departLane="best" from="525074968#0-AddedOffRampEdge" to="-493079374#4"/>
    <trip id="veh63" type="veh_passenger" depart="27.14" departLane="best" from="-669435104#0" to="-235841506#0"/>
    <trip id="veh64" type="veh_passenger" depart="27.57" departLane="best" from="-1229817202#1" to="719037407#2"/>
    <trip id="veh65" type="veh_passenger" depart="28.00" departLane="best" from="-310801005#7" to="-310398094#8"/>
    <trip id="veh66" type="veh_passenger" depart="28.43" departLane="best" from="310175655#0" to="429770748#1"/>
    <trip id="veh67" type="veh_passenger" depart="28.86" departLane="best" from="429770748#0" to="367323956#7"/>
    <trip id="veh68" type="veh_passenger" depart="29.29" departLane="best" from="236366212" to="314841808#3"/>
    <trip id="veh69" type="veh_passenger" depart="29.73" departLane="best" from="493079374#4" to="525074961#12"/>
    <trip id="veh70" type="veh_passenger" depart="30.16" departLane="best" from="228781867#0" to="-406372600#1"/>
    <trip id="veh71" type="veh_passenger" depart="30.59" departLane="best" from="314341192#6-AddedOnRampEdge" to="384325732"/>
    <trip id="veh73" type="veh_passenger" depart="31.45" departLane="best" from="989323725#2" to="367489814#4"/>
    <trip id="veh74" type="veh_passenger" depart="31.88" departLane="best" from="228781894#5" to="313046183#0"/>
    <trip id="veh75" type="veh_passenger" depart="32.31" departLane="best" from="317191838#1" to="-452166252#1"/>
    <trip id="veh76" type="veh_passenger" depart="32.74" departLane="best" from="-989805720#0" to="315306677#7"/>
    <trip id="veh77" type="veh_passenger" depart="33.17" departLane="best" from="-452166250#0" to="-451518262#1"/>
    <trip id="veh78" type="veh_passenger" depart="33.60" departLane="best" from="310175655#4" to="321499529#1"/>
    <trip id="veh79" type="veh_passenger" depart="34.03" departLane="best" from="-452166247#1" to="555454115"/>
    <trip id="veh80" type="veh_passenger" depart="34.46" departLane="best" from="525074955#1" to="310327707#8"/>
    <trip id="veh81" type="veh_passenger" depart="34.90" departLane="best" from="-452495686#2" to="37398743#1"/>
    <trip id="veh82" type="veh_passenger" depart="35.33" departLane="best" from="-406372581#2" to="-367518082#1"/>
    <trip id="veh83" type="veh_passenger" depart="35.76" departLane="best" from="71397829" to="315156943#2"/>
    <trip id="veh84" type="veh_passenger" depart="36.19" departLane="best" from="236366211#1" to="451518261"/>
    <trip id="veh85" type="veh_passenger" depart="36.62" departLane="best" from="-487613735#1" to="-391661202#0"/>
    <trip id="veh86" type="veh_passenger" depart="37.05" departLane="best" from="-313697541#1" to="228781899#1"/>
    <trip id="veh87" type="veh_passenger" depart="37.48" departLane="best" from="-228781867#2" to="309788546#5"/>
    <trip id="veh88" type="veh_passenger" depart="37.91" departLane="best" from="-383770772#2" to="37399910#3"/>
    <trip id="veh89" type="veh_passenger" depart="38.34" departLane="best" from="975901444#1" to="315306677#1"/>
    <trip id="veh91" type="veh_passenger" depart="39.20" departLane="best" from="525074957" to="-487634608#0"/>
    <trip id="veh93" type="veh_passenger" depart="40.06" departLane="best" from="228781863#1" to="-559023914#6"/>
    <trip id="veh95" type="veh_passenger" depart="40.93" departLane="best" from="228781897#7" to="525074955#1"/>
    <trip id="veh96" type="veh_passenger" depart="41.36" departLane="best" from="314841803#0" to="-234955379#1"/>
    <trip id="veh97" type="veh_passenger" depart="41.79" departLane="best" departSpeed="max" from="989805722" to="-524657924#1"/>
    <trip id="veh98" type="veh_passenger" depart="42.22" departLane="best" from="901038007#0" to="669435103#2"/>
    <trip id="veh99" type="veh_passenger" depart="42.65" departLane="best" from="525074934#1" to="37401583#8"/>
    <trip id="veh100" type="veh_passenger" depart="43.08" departLane="best" from="-310175655#3" to="406404308#0"/>
    <trip id="veh101" type="veh_passenger" depart="43.51" departLane="best" from="228335477" to="-236366199"/>
    <trip id="veh102" type="veh_passenger" depart="43.94" departLane="best" from="-165485222#0" to="976198919#7"/>
    <trip id="veh103" type="veh_passenger" depart="44.37" departLane="best" from="-493079375#0" to="451518260#0"/>
    <trip id="veh104" type="veh_passenger" depart="44.80" departLane="best" departSpeed="max" from="233962713" to="228781894#2-AddedOffRampEdge"/>
    <trip id="veh106" type="veh_passenger" depart="45.67" departLane="best" from="314841806#0" to="383631131#6"/>
    <trip id="veh107" type="veh_passenger" depart="46.10" departLane="best" from="37399236#1" to="71397841#1"/>
    <trip id="veh108" type="veh_passenger" depart="46.53" departLane="best" from="901038006" to="315171752#1-AddedOffRampEdge"/>
    <trip id="veh109" type="veh_passenger" depart="46.96" departLane="best" from="314423923" to="-406204670#3"/>
    <trip id="veh110" type="veh_passenger" depart="47.39" departLane="best" from="-235841484#1" to="315306666#0"/>
    <trip id="veh111" type="veh_passenger" depart="47.82" departLane="best" from="310801006#1" to="525074937#1-AddedOffRampEdge"/>
    <trip id="veh112" type="veh_passenger" depart="48.25" departLane="best" from="-37400383#1" to="900013637#0"/>
    <trip id="veh113" type="veh_passenger" depart="48.68" departLane="best" from="-310398094#13" to="-384163838#1"/>
    <trip id="veh114" type="veh_passenger" depart="49.11" departLane="best" from="-315306677#6" to="-37400461#3"/>
    <trip id="veh115" type="veh_passenger" depart="49.54" departLane="best" from="452495682#3" to="321499523#0"/>
    <trip id="veh116" type="veh_passenger" depart="49.97" departLane="best" from="553207532#1" to="487634594#3"/>
    <trip id="veh117" type="veh_passenger" depart="50.40" departLane="best" from="-315306677#4" to="321497219#4"/>
    <trip id="veh118" type="veh_passenger" depart="50.84" departLane="best" from="-228781849" to="315207163#2"/>
    <trip id="veh119" type="veh_passenger" depart="51.27" departLane="best" from="-312895043#2" to="670390623"/>
    <trip id="veh120" type="veh_passenger" depart="51.70" departLane="best" from="-391673011#4" to="383631131#16-AddedOnRampEdge"/>
    <trip id="veh122" type="veh_passenger" depart="52.56" departLane="best" from="372741862#0" to="-719037407#0"/>
    <trip id="veh123" type="veh_passenger" depart="52.99" departLane="best" from="-71397841#3" to="406372581#5"/>
    <trip id="veh124" type="veh_passenger" depart="53.42" departLane="best" from="-310327706#0" to="236366204#0"/>
    <trip id="veh125" type="veh_passenger" depart="53.85" departLane="best" from="-989805720#0" to="989774305#0"/>
    <trip id="veh126" type="veh_passenger" depart="54.28" departLane="best" from="-310327706#3" to="37402207"/>
    <trip id="veh127" type="veh_passenger" depart="54.71" departLane="best" from="493079375#0" to="670388504"/>
    <trip id="veh128" type="veh_passenger" depart="55.14" departLane="best" from="525074970#0" to="525074967#0"/>
    <trip id="veh129" type="veh_passenger" depart="55.57" departLane="best" from="1215393143" to="-37400910#1"/>
    <trip id="veh130" type="veh_passenger" depart="56.00" departLane="best" from="524657922#0" to="377031114#7"/>
    <trip id="veh131" type="veh_passenger" depart="56.44" departLane="best" from="-317091483#6" to="989312046#2"/>
    <trip id="veh132" type="veh_passenger" depart="56.87" departLane="best" from="383770773" to="-1103598048"/>
    <trip id="veh133" type="veh_passenger" depart="57.30" departLane="best" from="-487634580#2" to="-719037407#0"/>
    <trip id="veh134" type="veh_passenger" depart="57.73" departLane="best" from="367518084#7" to="71397802#1"/>
    <trip id="veh135" type="veh_passenger" depart="58.16" departLane="best" from="-367323957#1" to="-317217778"/>
    <trip id="veh136" type="veh_passenger" depart="58.59" departLane="best" from="-315306677#6" to="314841810#1"/>
    <trip id="veh137" type="veh_passenger" depart="59.02" departLane="best" from="525074960#1" to="317091483#6"/>
    <trip id="veh138" type="veh_passenger" depart="59.45" departLane="best" from="311791473#4" to="391673016#0"/>
    <trip id="veh139" type="veh_passenger" depart="59.88" departLane="best" from="321497220#6" to="525074967#0"/>
    <trip id="veh140" type="veh_passenger" depart="60.31" departLane="best" from="310327706#3" to="555454118"/>
    <trip id="veh141" type="veh_passenger" depart="60.74" departLane="best" from="228781867#2" to="559023913#4"/>
    <trip id="veh143" type="veh_passenger" depart="61.61" departLane="best" from="321499525#1" to="525074960#1"/>
    <trip id="veh144" type="veh_passenger" depart="62.04" departLane="best" from="391672999#0" to="314841809"/>
    <trip id="veh145" type="veh_passenger" depart="62.47" departLane="best" from="-228781880#1" to="-1208062949#1"/>
    <trip id="veh146" type="veh_passenger" depart="62.90" departLane="best" from="-310327707#6" to="525074970#1"/>
    <trip id="veh147" type="veh_passenger" depart="63.33" departLane="best" from="559023914#0" to="314841806#0"/>
    <trip id="veh148" type="veh_passenger" depart="63.76" departLane="best" from="-524657924#0" to="315207163#1"/>
    <trip id="veh149" type="veh_passenger" depart="64.19" departLane="best" from="-370242075#4" to="-367323956#2"/>
    <trip id="veh150" type="veh_passenger" depart="64.62" departLane="best" from="670346306#0" to="553211955#1"/>
    <trip id="veh151" type="veh_passenger" depart="65.05" departLane="best" from="-452166253#0" to="525074955#0-AddedOnRampEdge"/>
    <trip id="veh152" type="veh_passenger" depart="65.48" departLane="best" from="555454120" to="-406372581#4"/>
    <trip id="veh153" type="veh_passenger" depart="65.91" departLane="best" from="-487634561#0" to="-317091477#1"/>
    <trip id="veh154" type="veh_passenger" depart="66.34" departLane="best" from="429770768" to="525074970#3"/>
    <trip id="veh155" type="veh_passenger" depart="66.77" departLane="best" from="228340946#0-AddedOffRampEdge" to="321497219#7"/>
    <trip id="veh156" type="veh_passenger" depart="67.21" departLane="best" from="-37399236#0" to="-670346306#1"/>
    <trip id="veh157" type="veh_passenger" depart="67.64" departLane="best" from="525074958#1" to="911412842"/>
    <trip id="veh158" type="veh_passenger" depart="68.07" departLane="best" from="487634555" to="525074969#1"/>
    <trip id="veh159" type="veh_passenger" depart="68.50" departLane="best" from="-166211648#6" to="391673005#0"/>
    <trip id="veh160" type="veh_passenger" depart="68.93" departLane="best" from="-976198919#0" to="670346310#1"/>
    <trip id="veh162" type="veh_passenger" depart="69.79" departLane="best" from="487634555" to="-553207532#3"/>
    <trip id="veh163" type="veh_passenger" depart="70.22" departLane="best" from="429774080#3" to="-317091484#1"/>
    <trip id="veh164" type="veh_passenger" depart="70.65" departLane="best" from="525074961#5-AddedOnRampEdge" to="525074954#0-AddedOnRampEdge"/>
    <trip id="veh165" type="veh_passenger" depart="71.08" departLane="best" from="-429770769" to="487634591#3"/>
    <trip id="veh167" type="veh_passenger" depart="71.94" departLane="best" from="452166252#1" to="452495682#0"/>
    <trip id="veh168" type="veh_passenger" depart="72.38" departLane="best" from="-166211648#4" to="-391673002#0"/>
    <trip id="veh169" type="veh_passenger" depart="72.81" departLane="best" from="-975857848#0" to="525074957-AddedOnRampEdge"/>
    <trip id="veh170" type="veh_passenger" depart="73.24" departLane="best" from="900013634#0" to="-559023915#1"/>
    <trip id="veh171" type="veh_passenger" depart="73.67" departLane="best" from="975857848#0" to="314752444#2"/>
    <trip id="veh172" type="veh_passenger" depart="74.10" departLane="best" from="719037406" to="-317217778"/>
    <trip id="veh174" type="veh_passenger" depart="74.96" departLane="best" from="899907000#1" to="553207522#1"/>
    <trip id="veh175" type="veh_passenger" depart="75.39" departLane="best" from="-315306678#5" to="228781903#4"/>
    <trip id="veh176" type="veh_passenger" depart="75.82" departLane="best" from="-383770772#0" to="-901038006"/>
    <trip id="veh177" type="veh_passenger" depart="76.25" departLane="best" from="-317091478#3" to="312895043#2"/>
    <trip id="veh178" type="veh_passenger" depart="76.68" departLane="best" from="166211648#7" to="315171751#2-AddedOffRampEdge"/>
    <trip id="veh179" type="veh_passenger" depart="77.11" departLane="best" departSpeed="max" from="-487634591#3" to="382864414#6"/>
    <trip id="veh181" type="veh_passenger" depart="77.98" departLane="best" from="314341192#3" to="383631131#9"/>
    <trip id="veh182" type="veh_passenger" depart="78.41" departLane="best" from="391673000#1" to="37399222#2"/>
    <trip id="veh183" type="veh_passenger" depart="78.84" departLane="best" from="-1213731675#6" to="310327707#4"/>
    <trip id="veh185" type="veh_passenger" depart="79.70" departLane="best" departSpeed="max" from="-670390623" to="525074931#0"/>
    <trip id="veh186" type="veh_passenger" depart="80.13" departLane="best" from="383631131#11" to="-719037407#0"/>
    <trip id="veh187" type="veh_passenger" depart="80.56" departLane="best" departSpeed="max" from="-670346310#1" to="228781859#0"/>
    <trip id="veh189" type="veh_passenger" depart="81.42" departLane="best" from="-321499525#0" to="228781885#4"/>
    <trip id="veh190" type="veh_passenger" depart="81.85" departLane="best" departSpeed="max" from="719037407#0" to="37400463#4"/>
    <trip id="veh191" type="veh_passenger" depart="82.28" departLane="best" from="-559023913#1" to="-321497209#3"/>
    <trip id="veh192" type="veh_passenger" depart="82.71" departLane="best" from="-600968887#8" to="314841806#2"/>
    <trip id="veh194" type="veh_passenger" depart="83.58" departLane="best" from="228781883#1" to="315171752#1-AddedOnRampEdge"/>
    <trip id="veh195" type="veh_passenger" depart="84.01" departLane="best" from="367323954#5" to="311791479#0"/>
    <trip id="veh196" type="veh_passenger" depart="84.44" departLane="best" from="-228781897#3" to="-406372638#2"/>
    <trip id="veh197" type="veh_passenger" depart="84.87" departLane="best" from="236366211#2" to="553211967"/>
    <trip id="veh198" type="veh_passenger" depart="85.30" departLane="best" from="452166252#3" to="-37403355#3"/>
    <trip id="veh199" type="veh_passenger" depart="85.73" departLane="best" from="310801005#2" to="313031073#11"/>
    <trip id="veh201" type="veh_passenger" depart="86.59" departLane="best" from="-487634591#0" to="406372581#1"/>
    <trip id="veh202" type="veh_passenger" depart="87.02" departLane="best" from="1096882806#3" to="-452166252#0"/>
    <trip id="veh203" type="veh_passenger" depart="87.45" departLane="best" from="-391673004#1" to="167314845#6"/>
    <trip id="veh204" type="veh_passenger" depart="87.88" departLane="best" from="-487613735#1" to="-310327705"/>
    <trip id="veh205" type="veh_passenger" depart="88.32" departLane="best" from="525074937#1" to="-310327708#2"/>
    <trip id="veh206" type="veh_passenger" depart="88.75" departLane="best" from="228340947#7" to="321499527#1"/>
    <trip id="veh207" type="veh_passenger" depart="89.18" departLane="best" from="-384532067#5" to="376998093#1"/>
    <trip id="veh208" type="veh_passenger" depart="89.61" departLane="best" from="310327708#9" to="487634583#0"/>
    <trip id="veh210" type="veh_passenger" depart="90.47" departLane="best" from="391673013#0" to="429770762#2-AddedOffRampEdge"/>
    <trip id="veh211" type="veh_passenger" depart="90.90" departLane="best" from="-315306677#4" to="228781895#1"/>
    <trip id="veh212" type="veh_passenger" depart="91.33" departLane="best" from="-37403355#2" to="-899907000#2"/>
    <trip id="veh213" type="veh_passenger" depart="91.76" departLane="best" from="311965295#3-AddedOnRampEdge" to="37398443"/>
    <trip id="veh214" type="veh_passenger" depart="92.19" departLane="best" from="-487634556#1" to="525074931#0"/>
    <trip id="veh216" type="veh_passenger" depart="93.05" departLane="best" from="370242074#1" to="989312046#6"/>
    <trip id="veh218" type="veh_passenger" depart="93.92" departLane="best" from="553207532#5" to="317217787#1"/>
    <trip id="veh219" type="veh_passenger" depart="94.35" departLane="best" from="383631131#10-AddedOffRampEdge" to="311965295#3"/>
    <trip id="veh220" type="veh_passenger" depart="94.78" departLane="best" from="493079374#4" to="314841806#2"/>
    <trip id="veh221" type="veh_passenger" depart="95.21" departLane="best" from="-553257319#0" to="391673014#1"/>
    <trip id="veh222" type="veh_passenger" depart="95.64" departLane="best" from="236366211#2-AddedOnRampEdge" to="-524657955#4"/>
    <trip id="veh223" type="veh_passenger" depart="96.07" departLane="best" from="-487613738#4" to="367287219#0"/>
    <trip id="veh224" type="veh_passenger" depart="96.50" departLane="best" from="429770748#0" to="313592400"/>
    <trip id="veh225" type="veh_passenger" depart="96.93" departLane="best" from="321497219#3" to="-559023912#0"/>
    <trip id="veh227" type="veh_passenger" depart="97.79" departLane="best" from="525074960#0" to="-976198919#5"/>
    <trip id="veh229" type="veh_passenger" depart="98.65" departLane="best" from="-452166252#0" to="-376796428#2"/>
    <trip id="veh230" type="veh_passenger" depart="99.09" departLane="best" from="-377004282#0" to="309788550"/>
    <trip id="veh231" type="veh_passenger" depart="99.52" departLane="best" from="228340946#1" to="314841804"/>
    <trip id="veh232" type="veh_passenger" depart="99.95" departLane="best" from="228340947#7-AddedOffRampEdge" to="-406204672#1"/>
    <trip id="veh233" type="veh_passenger" depart="100.38" departLane="best" from="228781852#1" to="555454115"/>
    <trip id="veh234" type="veh_passenger" depart="100.81" departLane="best" from="315171751#2-AddedOnRampEdge" to="-376796429#5"/>
    <trip id="veh235" type="veh_passenger" depart="101.24" departLane="best" from="525074954#0-AddedOnRampEdge" to="429770761#0"/>
    <trip id="veh237" type="veh_passenger" depart="102.10" departLane="best" from="1096882806#3" to="406372600#2"/>
    <trip id="veh239" type="veh_passenger" depart="102.96" departLane="best" from="228781847" to="406204670#1"/>
    <trip id="veh240" type="veh_passenger" depart="103.39" departLane="best" from="314752444#0" to="317091482#1"/>
    <trip id="veh241" type="veh_passenger" depart="103.82" departLane="best" from="-429770747#2" to="-451518260#1"/>
    <trip id="veh242" type="veh_passenger" depart="104.26" departLane="best" from="228781894#0" to="228340942#0"/>
    <trip id="veh243" type="veh_passenger" depart="104.69" departLane="best" from="-989323726" to="-37400754#4"/>
    <trip id="veh244" type="veh_passenger" depart="105.12" departLane="best" from="228340943#2" to="37401583#2"/>
    <trip id="veh245" type="veh_passenger" depart="105.55" departLane="best" from="235841495#0" to="-367323956#3"/>
    <trip id="veh248" type="veh_passenger" depart="106.84" departLane="best" from="167314845#1" to="367287219#6-AddedOffRampEdge"/>
    <trip id="veh249" type="veh_passenger" depart="107.27" departLane="best" from="367489814#10" to="236366211#2-AddedOnRampEdge"/>
    <trip id="veh253" type="veh_passenger" depart="108.99" departLane="best" from="391673014#2" to="493079374#5"/>
    <trip id="veh254" type="veh_passenger" depart="109.42" departLane="best" from="-487634577#3" to="-311884716#2"/>
    <trip id="veh255" type="veh_passenger" depart="109.86" departLane="best" from="-165485222#1" to="-314809029#4"/>
    <trip id="veh256" type="veh_passenger" depart="110.29" departLane="best" departSpeed="max" from="989805722" to="1213731675#4"/>
    <trip id="veh257" type="veh_passenger" depart="110.72" departLane="best" from="367287219#4" to="429774080#1"/>
    <trip id="veh258" type="veh_passenger" depart="111.15" departLane="best" from="367287219#6-AddedOffRampEdge" to="406372600#6"/>
    <trip id="veh260" type="veh_passenger" depart="112.01" departLane="best" from="165485222#3" to="37400383#2"/>
    <trip id="veh261" type="veh_passenger" depart="112.44" departLane="best" from="-321499523#0" to="37399150#1"/>
    <trip id="veh262" type="veh_passenger" depart="112.87" departLane="best" from="315156938#0" to="-451398633#1"/>
    <trip id="veh263" type="veh_passenger" depart="113.30" departLane="best" from="376796428#2" to="429770761#2"/>
    <trip id="veh264" type="veh_passenger" depart="113.73" departLane="best" from="-37401042#4" to="317091488#0"/>
    <trip id="veh265" type="veh_passenger" depart="114.16" departLane="best" from="391673009#4" to="-317191837#5"/>
    <trip id="veh267" type="veh_passenger" depart="115.03" departLane="best" from="315306678#4" to="182129434#0"/>
    <trip id="veh268" type="veh_passenger" depart="115.46" departLane="best" departSpeed="max" from="-670388504" to="-37400463#4"/>
    <trip id="veh270" type="veh_passenger" depart="116.32" departLane="best" from="382864414#3" to="310398094#2"/>
    <trip id="veh271" type="veh_passenger" depart="116.75" departLane="best" from="37401042#4" to="321497220#9"/>
    <trip id="veh272" type="veh_passenger" depart="117.18" departLane="best" from="314752444#6" to="429770765#6"/>