<?xml version="1.0" encoding="UTF-8"?>

<!-- generated on 2024-06-03 20:37:00.927850 by osmWebWizard.py v1_19_0+0000-baa66a0f364
<configuration>
    <net-file value="C:\Users\jaehyeok\Sumo\2024-06-03-20-36-56\osm.net.xml.gz"/>
    <output-trip-file value="C:\Users\jaehyeok\Sumo\2024-06-03-20-36-56\osm.passenger.trips.xml"/>
    <route-file value="C:\Users\jaehyeok\Sumo\2024-06-03-20-36-56\osm.passenger.rou.xml"/>
    <prefix value="veh"/>
    <trip-attributes value="departLane=&quot;best&quot;"/>
    <fringe-start-attributes value="departSpeed=&quot;max&quot;"/>
    <vehicle-class value="passenger"/>
    <lanes value="True"/>
    <fringe-factor value="5"/>
    <allow-fringe.min-length value="1000.0"/>
    <via-edge-types value="highway.motorway,highway.motorway_link,highway.trunk_link,highway.primary_link,highway.secondary_link,highway.tertiary_link"/>
    <min-distance value="300.0"/>
    <min-distance.fringe value="10.0"/>
    <remove-loops value="True"/>
    <validate value="True"/>
    <insertion-density value="12.0"/>
</configuration>
-->

<!-- generated on 2024-06-03 20:37:00 by Eclipse SUMO duarouter Version 1.19.0
<configuration xmlns:xsi="http://www.w3.org/2001/XMLSchema-instance" xsi:noNamespaceSchemaLocation="http://sumo.dlr.de/xsd/duarouterConfiguration.xsd">

    <input>
        <net-file value="C:\Users\jaehyeok\Sumo\2024-06-03-20-36-56\osm.net.xml.gz"/>
        <route-files value="C:\Users\jaehyeok\Sumo\2024-06-03-20-36-56\osm.passenger.trips.xml"/>
    </input>

    <output>
        <output-file value="C:\Users\jaehyeok\Sumo\2024-06-03-20-36-56\osm.passenger.trips.xml.tmp"/>
        <alternatives-output value="NUL"/>
        <write-trips value="true"/>
    </output>

    <processing>
        <remove-loops value="true"/>
    </processing>

    <time>
        <begin value="0.0"/>
        <end value="3600.0"/>
    </time>

    <report>
        <no-warnings value="true"/>
        <ignore-errors value="true"/>
        <no-step-log value="true"/>
    </report>

</configuration>
-->

<routes xmlns:xsi="http://www.w3.org/2001/XMLSchema-instance" xsi:noNamespaceSchemaLocation="http://sumo.dlr.de/xsd/routes_file.xsd">
    <vType id="veh_car" vClass="passenger"/>
    <trip id="veh37" type="veh_car" depart="0.00" departLane="random" departSpeed="max" from="621543083#0" to="1147496804" color="red"/>
<trip id="veh48" type="veh_car" depart="0.97" departLane="random" departSpeed="max" from="621543083#0" to="1137447878" color="red"/>
<trip id="veh68" type="veh_car" depart="1.09" departLane="random" departSpeed="max" from="-1137447878" to="-621543083#1" color="blue"/>
<trip id="veh96" type="veh_car" depart="2.10" departLane="random" departSpeed="max" from="621543083#0" to="1137447878" color="red"/>
<trip id="veh101" type="veh_car" depart="2.17" departLane="random" departSpeed="max" from="621543083#0" to="1147496804" color="red"/>
<trip id="veh105" type="veh_car" depart="2.23" departLane="best" departSpeed="max" from="621543083#0" to="1147496804" color="red"/>
<trip id="veh126" type="veh_car" depart="3.11" departLane="best" departSpeed="max" from="621543083#0" to="1137447878" color="red"/>
<trip id="veh129" type="veh_car" depart="3.18" departLane="random" departSpeed="max" from="621543083#0" to="1147496804" color="red"/>
<trip id="veh164" type="veh_car" depart="4.39" departLane="random" departSpeed="max" from="-1137447878" to="-621543083#1" color="blue"/>
<trip id="veh171" type="veh_car" depart="4.71" departLane="random" departSpeed="max" from="621543083#0" to="1137447878" color="red"/>
<trip id="veh174" type="veh_car" depart="4.87" departLane="random" departSpeed="max" from="621543083#0" to="1147496804" color="red"/>
<trip id="veh169" type="veh_car" depart="4.90" departLane="best" departSpeed="max" from="621543083#0" to="1147496804" color="red"/>
<trip id="veh177" type="veh_car" depart="4.99" departLane="best" departSpeed="max" from="621543083#0" to="1137447878" color="red"/>
<trip id="veh182" type="veh_car" depart="5.06" departLane="best" departSpeed="max" from="621543083#0" to="1147496804" color="red"/>
<trip id="veh135" type="veh_car" depart="6.46" departLane="best" departSpeed="max" from="621543083#0" to="1147496804" color="red"/>
<trip id="veh223" type="veh_car" depart="6.59" departLane="random" departSpeed="max" from="621543083#0" to="1137447878" color="red"/>
<trip id="veh225" type="veh_car" depart="6.69" departLane="best" departSpeed="max" from="-1137447878" to="-621543083#1" color="blue"/>
<trip id="veh283" type="veh_car" depart="8.65" departLane="best" departSpeed="max" from="621543083#0" to="1147496804" color="red"/>
<trip id="veh290" type="veh_car" depart="8.84" departLane="best" departSpeed="max" from="621543083#0" to="1137447878" color="red"/>
<trip id="veh232" type="veh_car" depart="9.73" departLane="best" departSpeed="max" from="-1137447878" to="-621543083#1" color="blue"/>
<trip id="veh311" type="veh_car" depart="10.58" departLane="best" departSpeed="max" from="621543083#0" to="1147496804" color="red"/>
<trip id="veh342" type="veh_car" depart="10.65" departLane="random" departSpeed="max" from="621543083#0" to="1137447878" color="red"/>
<trip id="veh348" type="veh_car" depart="10.77" departLane="random" departSpeed="max" from="621543083#0" to="1137447878" color="red"/>
<trip id="veh346" type="veh_car" depart="12.49" departLane="random" departSpeed="max" from="621543083#0" to="1137447878" color="red"/>
<trip id="veh399" type="veh_car" depart="12.62" departLane="best" departSpeed="max" from="621543083#0" to="1137447878" color="red"/>
<trip id="veh376" type="veh_car" depart="12.74" departLane="best" departSpeed="max" from="621543083#0" to="1137447878" color="red"/>
<trip id="veh424" type="veh_car" depart="14.07" departLane="random" departSpeed="max" from="-1137447878" to="-621543083#1" color="blue"/>
<trip id="veh446" type="veh_car" depart="14.39" departLane="random" departSpeed="max" from="621543083#0" to="1137447878" color="red"/>
<trip id="veh453" type="veh_car" depart="14.65" departLane="random" departSpeed="max" from="621543083#0" to="1137447878" color="red"/>
<trip id="veh459" type="veh_car" depart="14.94" departLane="best" departSpeed="max" from="-1137447878" to="-621543083#1" color="blue"/>
<trip id="veh501" type="veh_car" depart="17.31" departLane="random" departSpeed="max" from="621543083#0" to="1147496804" color="red"/>
<trip id="veh505" type="veh_car" depart="17.37" departLane="best" departSpeed="max" from="621543083#0" to="1137447878" color="red"/>
<trip id="veh462" type="veh_car" depart="17.50" departLane="best" departSpeed="max" from="537037843#1" to="-621543083#1" color="blue"/>
<trip id="veh512" type="veh_car" depart="17.63" departLane="random" departSpeed="max" from="621543083#0" to="1147496804" color="red"/>
<trip id="veh517" type="veh_car" depart="17.72" departLane="best" departSpeed="max" from="621543083#0" to="1137447878" color="red"/>
<trip id="veh538" type="veh_car" depart="19.01" departLane="random" departSpeed="max" from="621543083#0" to="1137447878" color="red"/>
<trip id="veh541" type="veh_car" depart="19.14" departLane="best" departSpeed="max" from="621543083#0" to="1137447878" color="red"/>
<trip id="veh589" type="veh_car" depart="22.63" departLane="random" departSpeed="max" from="621543083#0" to="1147496804" color="red"/>
<trip id="veh556" type="veh_car" depart="23.42" departLane="best" departSpeed="max" from="-1137447878" to="-621543083#1" color="blue"/>
<trip id="veh598" type="veh_car" depart="23.93" departLane="random" departSpeed="max" from="537037843#1" to="-621543083#1" color="blue"/>
<trip id="veh620" type="veh_car" depart="26.17" departLane="best" departSpeed="max" from="621543083#0" to="1147496804" color="red"/>
<trip id="veh658" type="veh_car" depart="33.96" departLane="random" departSpeed="max" from="-1137447878" to="-621543083#1" color="blue"/>
<trip id="veh835" type="veh_car" depart="87.67" departLane="best" departSpeed="max" from="621543083#0" to="1137447878" color="red"/>
<trip id="veh856" type="veh_car" depart="89.26" departLane="random" departSpeed="max" from="621543083#0" to="1147496804" color="red"/>
<trip id="veh885" type="veh_car" depart="91.13" departLane="random" departSpeed="max" from="621543083#0" to="1137447878" color="red"/>
<trip id="veh940" type="veh_car" depart="92.75" departLane="best" departSpeed="max" from="621543083#0" to="1147496804" color="red"/>
<trip id="veh972" type="veh_car" depart="95.14" departLane="best" departSpeed="max" from="621543083#0" to="1147496804" color="red"/>
<trip id="veh1081" type="veh_car" depart="99.71" departLane="best" departSpeed="max" from="537037843#1" to="-621543083#1" color="blue"/>
<trip id="veh1127" type="veh_car" depart="99.94" departLane="random" departSpeed="max" from="-1137447878" to="-621543083#1" color="blue"/>
<trip id="veh1122" type="veh_car" depart="100.93" departLane="best" departSpeed="max" from="621543083#0" to="1137447878" color="red"/>
<trip id="veh1158" type="veh_car" depart="103.84" departLane="best" departSpeed="max" from="-1137447878" to="-621543083#1" color="blue"/>
<trip id="veh1486" type="veh_car" depart="129.54" departLane="random" departSpeed="max" from="-1137447878" to="-621543083#1" color="blue"/>
<trip id="veh1570" type="veh_car" depart="134.17" departLane="best" departSpeed="max" from="537037843#1" to="-621543083#1" color="blue"/>
<trip id="veh1622" type="veh_car" depart="138.01" departLane="random" departSpeed="max" from="537037843#1" to="-621543083#1" color="blue"/>
<trip id="veh1623" type="veh_car" depart="138.20" departLane="random" departSpeed="max" from="537037843#1" to="-621543083#1" color="blue"/>
<trip id="veh1648" type="veh_car" depart="140.69" departLane="random" departSpeed="max" from="537037843#1" to="-621543083#1" color="blue"/>
<trip id="veh1658" type="veh_car" depart="140.79" departLane="best" departSpeed="max" from="-1137447878" to="-621543083#1" color="blue"/>
<trip id="veh1681" type="veh_car" depart="143.15" departLane="best" departSpeed="max" from="-1137447878" to="-621543083#1" color="blue"/>
<trip id="veh1711" type="veh_car" depart="144.37" departLane="random" departSpeed="max" from="-1137447878" to="-621543083#1" color="blue"/>
<trip id="veh1712" type="veh_car" depart="144.52" departLane="best" departSpeed="max" from="-1137447878" to="-621543083#1" color="blue"/>
<trip id="veh1815" type="veh_car" depart="152.11" departLane="best" departSpeed="max" from="537037843#1" to="-621543083#1" color="blue"/>
<trip id="veh1818" type="veh_car" depart="152.25" departLane="best" departSpeed="max" from="-1137447878" to="-621543083#1" color="blue"/>
<trip id="veh1903" type="veh_car" depart="158.59" departLane="best" departSpeed="max" from="-1137447878" to="-621543083#1" color="blue"/>
<trip id="veh1978" type="veh_car" depart="162.10" departLane="best" departSpeed="max" from="-1137447878" to="-621543083#1" color="blue"/>
<trip id="veh2063" type="veh_car" depart="168.01" departLane="best" departSpeed="max" from="537037843#1" to="-621543083#1" color="blue"/>
<trip id="veh2021" type="veh_car" depart="168.92" departLane="random" departSpeed="max" from="621543083#0" to="1147496804" color="red"/>
<trip id="veh2088" type="veh_car" depart="170.07" departLane="best" departSpeed="max" from="621543083#0" to="1147496804" color="red"/>
<trip id="veh2090" type="veh_car" depart="170.31" departLane="best" departSpeed="max" from="621543083#0" to="1147496804" color="red"/>
<trip id="veh2106" type="veh_car" depart="173.02" departLane="random" departSpeed="max" from="621543083#0" to="1137447878" color="red"/>
<trip id="veh2129" type="veh_car" depart="173.16" departLane="best" departSpeed="max" from="621543083#0" to="1147496804" color="red"/>
<trip id="veh2133" type="veh_car" depart="173.30" departLane="best" departSpeed="max" from="621543083#0" to="1147496804" color="red"/>
<trip id="veh2177" type="veh_car" depart="176.16" departLane="random" departSpeed="max" from="621543083#0" to="1137447878" color="red"/>
<trip id="veh2196" type="veh_car" depart="176.45" departLane="random" departSpeed="max" from="621543083#0" to="1147496804" color="red"/>
<trip id="veh2216" type="veh_car" depart="181.00" departLane="random" departSpeed="max" from="621543083#0" to="1147496804" color="red"/>
<trip id="veh2244" type="veh_car" depart="181.76" departLane="best" departSpeed="max" from="537037843#1" to="-621543083#1" color="blue"/>
<trip id="veh2280" type="veh_car" depart="184.04" departLane="best" departSpeed="max" from="621543083#0" to="1147496804" color="red"/>
<trip id="veh2288" type="veh_car" depart="184.36" departLane="random" departSpeed="max" from="621543083#0" to="1147496804" color="red"/>
<trip id="veh2321" type="veh_car" depart="187.75" departLane="best" departSpeed="max" from="621543083#0" to="1137447878" color="red"/>
<trip id="veh2366" type="veh_car" depart="191.21" departLane="random" departSpeed="max" from="621543083#0" to="1147496804" color="red"/>
<trip id="veh2378" type="veh_car" depart="192.34" departLane="best" departSpeed="max" from="537037843#1" to="-621543083#1" color="blue"/>
<trip id="veh2408" type="veh_car" depart="193.64" departLane="best" departSpeed="max" from="621543083#0" to="1147496804" color="red"/>
<trip id="veh2399" type="veh_car" depart="193.84" departLane="random" departSpeed="max" from="-1137447878" to="-621543083#1" color="blue"/>
<trip id="veh2442" type="veh_car" depart="196.49" departLane="best" departSpeed="max" from="621543083#0" to="1147496804" color="red"/>
<trip id="veh2458" type="veh_car" depart="197.72" departLane="random" departSpeed="max" from="537037843#1" to="-621543083#1" color="blue"/>
<trip id="veh2446" type="veh_car" depart="198.28" departLane="best" departSpeed="max" from="621543083#0" to="1147496804" color="red"/>
<trip id="veh2466" type="veh_car" depart="198.39" departLane="best" departSpeed="max" from="621543083#0" to="1137447878" color="red"/>
<trip id="veh2484" type="veh_car" depart="200.23" departLane="random" departSpeed="max" from="621543083#0" to="1147496804" color="red"/>
<trip id="veh2499" type="veh_car" depart="200.50" departLane="random" departSpeed="max" from="-1137447878" to="-621543083#1" color="blue"/>
<trip id="veh2513" type="veh_car" depart="202.92" departLane="best" departSpeed="max" from="621543083#0" to="1147496804" color="red"/>
<trip id="veh2539" type="veh_car" depart="203.80" departLane="random" departSpeed="max" from="621543083#0" to="1147496804" color="red"/>
<trip id="veh2548" type="veh_car" depart="205.08" departLane="best" departSpeed="max" from="621543083#0" to="1137447878" color="red"/>
<trip id="veh2595" type="veh_car" depart="206.20" departLane="random" departSpeed="max" from="621543083#0" to="1137447878" color="red"/>
<trip id="veh2596" type="veh_car" depart="206.29" departLane="best" departSpeed="max" from="621543083#0" to="1147496804" color="red"/>
<trip id="veh2606" type="veh_car" depart="207.07" departLane="best" departSpeed="max" from="-1137447878" to="-621543083#1" color="blue"/>
<trip id="veh2604" type="veh_car" depart="207.11" departLane="best" departSpeed="max" from="621543083#0" to="1137447878" color="red"/>
<trip id="veh2608" type="veh_car" depart="207.21" departLane="best" departSpeed="max" from="621543083#0" to="1147496804" color="red"/>
<trip id="veh2631" type="veh_car" depart="208.78" departLane="best" departSpeed="max" from="-1137447878" to="-621543083#1" color="blue"/>
<trip id="veh2634" type="veh_car" depart="209.59" departLane="random" departSpeed="max" from="621543083#0" to="1147496804" color="red"/>
<trip id="veh2653" type="veh_car" depart="209.97" departLane="best" departSpeed="max" from="621543083#0" to="1137447878" color="red"/>
<trip id="veh2656" type="veh_car" depart="210.20" departLane="random" departSpeed="max" from="621543083#0" to="1147496804" color="red"/>
<trip id="veh2649" type="veh_car" depart="210.40" departLane="random" departSpeed="max" from="537037843#1" to="-621543083#1" color="blue"/>
<trip id="veh2686" type="veh_car" depart="211.86" departLane="best" departSpeed="max" from="621543083#0" to="1137447878" color="red"/>
<trip id="veh2713" type="veh_car" depart="214.04" departLane="best" departSpeed="max" from="621543083#0" to="1147496804" color="red"/>
<trip id="veh2744" type="veh_car" depart="216.53" departLane="random" departSpeed="max" from="621543083#0" to="1137447878" color="red"/>
<trip id="veh2748" type="veh_car" depart="216.53" departLane="best" departSpeed="max" from="-1137447878" to="-621543083#1" color="blue"/>
<trip id="veh2754" type="veh_car" depart="216.84" departLane="best" departSpeed="max" from="621543083#0" to="1137447878" color="red"/>
<trip id="veh2780" type="veh_car" depart="221.37" departLane="best" departSpeed="max" from="621543083#0" to="1147496804" color="red"/>
<trip id="veh2822" type="veh_car" depart="221.64" departLane="random" departSpeed="max" from="621543083#0" to="1137447878" color="red"/>
<trip id="veh2801" type="veh_car" depart="222.52" departLane="random" departSpeed="max" from="621543083#0" to="1147496804" color="red"/>
<trip id="veh2550" type="veh_car" depart="222.72" departLane="random" departSpeed="max" from="537037843#1" to="-621543083#1" color="blue"/>
<trip id="veh2815" type="veh_car" depart="226.15" departLane="random" departSpeed="max" from="537037843#1" to="-621543083#1" color="blue"/>
<trip id="veh2930" type="veh_car" depart="229.19" departLane="random" departSpeed="max" from="-1137447878" to="-621543083#1" color="blue"/>
<trip id="veh2932" type="veh_car" depart="229.41" departLane="best" departSpeed="max" from="-1137447878" to="-621543083#1" color="blue"/>
<trip id="veh2933" type="veh_car" depart="229.56" departLane="random" departSpeed="max" from="-1137447878" to="-621543083#1" color="blue"/>
<trip id="veh2927" type="veh_car" depart="232.99" departLane="best" departSpeed="max" from="537037843#1" to="-621543083#1" color="blue"/>
<trip id="veh2954" type="veh_car" depart="233.29" departLane="random" departSpeed="max" from="621543083#0" to="1137447878" color="red"/>
<trip id="veh2976" type="veh_car" depart="233.40" departLane="best" departSpeed="max" from="621543083#0" to="1137447878" color="red"/>
<trip id="veh2979" type="veh_car" depart="236.46" departLane="random" departSpeed="max" from="-1137447878" to="-621543083#1" color="blue"/>
<trip id="veh3036" type="veh_car" depart="237.58" departLane="best" departSpeed="max" from="621543083#0" to="1147496804" color="red"/>
<trip id="veh3062" type="veh_car" depart="242.36" departLane="random" departSpeed="max" from="621543083#0" to="1147496804" color="red"/>
<trip id="veh3079" type="veh_car" depart="242.71" departLane="random" departSpeed="max" from="621543083#0" to="1137447878" color="red"/>
<trip id="veh3106" type="veh_car" depart="246.71" departLane="random" departSpeed="max" from="621543083#0" to="1147496804" color="red"/>
<trip id="veh3111" type="veh_car" depart="247.61" departLane="random" departSpeed="max" from="621543083#0" to="1137447878" color="red"/>
<trip id="veh3093" type="veh_car" depart="249.13" departLane="random" departSpeed="max" from="621543083#0" to="1137447878" color="red"/>
<trip id="veh3125" type="veh_car" depart="251.69" departLane="best" departSpeed="max" from="621543083#0" to="1147496804" color="red"/>
<trip id="veh3166" type="veh_car" depart="257.25" departLane="best" departSpeed="max" from="621543083#0" to="1137447878" color="red"/>
<trip id="veh3199" type="veh_car" depart="265.59" departLane="best" departSpeed="max" from="621543083#0" to="1137447878" color="red"/>
<trip id="veh3309" type="veh_car" depart="328.45" departLane="best" departSpeed="max" from="537037843#1" to="-621543083#1" color="blue"/>
<trip id="veh3311" type="veh_car" depart="328.70" departLane="random" departSpeed="max" from="537037843#1" to="-621543083#1" color="blue"/>
<trip id="veh3312" type="veh_car" depart="328.77" departLane="random" departSpeed="max" from="-1137447878" to="-621543083#1" color="blue"/>
<trip id="veh3313" type="veh_car" depart="331.79" departLane="best" departSpeed="max" from="621543083#0" to="1147496804" color="red"/>
<trip id="veh3326" type="veh_car" depart="335.78" departLane="best" departSpeed="max" from="537037843#1" to="-621543083#1" color="blue"/>
<trip id="veh3342" type="veh_car" depart="343.74" departLane="best" departSpeed="max" from="-1137447878" to="-621543083#1" color="blue"/>
<trip id="veh3338" type="veh_car" depart="344.94" departLane="best" departSpeed="max" from="621543083#0" to="1137447878" color="red"/>
<trip id="veh3344" type="veh_car" depart="345.03" departLane="random" departSpeed="max" from="-1137447878" to="-621543083#1" color="blue"/>
<trip id="veh3365" type="veh_car" depart="362.69" departLane="random" departSpeed="max" from="-1137447878" to="-621543083#1" color="blue"/>
<trip id="veh3537" type="veh_car" depart="390.39" departLane="best" departSpeed="max" from="-1137447878" to="-621543083#1" color="blue"/>
<trip id="veh3601" type="veh_car" depart="392.78" departLane="random" departSpeed="max" from="-1137447878" to="-621543083#1" color="blue"/>
<trip id="veh3607" type="veh_car" depart="393.01" departLane="random" departSpeed="max" from="-1137447878" to="-621543083#1" color="blue"/>
<trip id="veh3608" type="veh_car" depart="393.01" departLane="random" departSpeed="max" from="-1137447878" to="-621543083#1" color="blue"/>
<trip id="veh3612" type="veh_car" depart="393.15" departLane="best" departSpeed="max" from="-1137447878" to="-621543083#1" color="blue"/>
<trip id="veh3615" type="veh_car" depart="393.20" departLane="random" departSpeed="max" from="-1137447878" to="-621543083#1" color="blue"/>
<trip id="veh3683" type="veh_car" depart="396.60" departLane="best" departSpeed="max" from="-1137447878" to="-621543083#1" color="blue"/>
<trip id="veh3700" type="veh_car" depart="397.71" departLane="random" departSpeed="max" from="-1137447878" to="-621543083#1" color="blue"/>
<trip id="veh3715" type="veh_car" depart="397.84" departLane="random" departSpeed="max" from="-1137447878" to="-621543083#1" color="blue"/>
<trip id="veh3762" type="veh_car" depart="399.99" departLane="random" departSpeed="max" from="-1137447878" to="-621543083#1" color="blue"/>
<trip id="veh3823" type="veh_car" depart="402.60" departLane="best" departSpeed="max" from="537037843#1" to="-621543083#1" color="blue"/>
<trip id="veh3827" type="veh_car" depart="402.74" departLane="best" departSpeed="max" from="537037843#1" to="-621543083#1" color="blue"/>
<trip id="veh3861" type="veh_car" depart="404.42" departLane="random" departSpeed="max" from="537037843#1" to="-621543083#1" color="blue"/>
<trip id="veh3893" type="veh_car" depart="405.79" departLane="random" departSpeed="max" from="-1137447878" to="-621543083#1" color="blue"/>
<trip id="veh3896" type="veh_car" depart="405.99" departLane="best" departSpeed="max" from="537037843#1" to="-621543083#1" color="blue"/>
<trip id="veh3963" type="veh_car" depart="409.36" departLane="random" departSpeed="max" from="537037843#1" to="-621543083#1" color="blue"/>
<trip id="veh4138" type="veh_car" depart="416.86" departLane="random" departSpeed="max" from="-1137447878" to="-621543083#1" color="blue"/>
<trip id="veh4166" type="veh_car" depart="418.09" departLane="best" departSpeed="max" from="-1137447878" to="-621543083#1" color="blue"/>
<trip id="veh4200" type="veh_car" depart="419.71" departLane="random" departSpeed="max" from="537037843#1" to="-621543083#1" color="blue"/>
<trip id="veh4236" type="veh_car" depart="421.00" departLane="best" departSpeed="max" from="-1137447878" to="-621543083#1" color="blue"/>
<trip id="veh4239" type="veh_car" depart="421.10" departLane="random" departSpeed="max" from="537037843#1" to="-621543083#1" color="blue"/>
<trip id="veh4243" type="veh_car" depart="421.26" departLane="best" departSpeed="max" from="537037843#1" to="-621543083#1" color="blue"/>
<trip id="veh4245" type="veh_car" depart="421.46" departLane="random" departSpeed="max" from="537037843#1" to="-621543083#1" color="blue"/>
<trip id="veh4273" type="veh_car" depart="423.31" departLane="random" departSpeed="max" from="-1137447878" to="-621543083#1" color="blue"/>
<trip id="veh4323" type="veh_car" depart="425.75" departLane="random" departSpeed="max" from="621543083#0" to="1137447878" color="red"/>
<trip id="veh4336" type="veh_car" depart="426.11" departLane="random" departSpeed="max" from="621543083#0" to="1137447878" color="red"/>
<trip id="veh4292" type="veh_car" depart="426.71" departLane="best" departSpeed="max" from="621543083#0" to="1137447878" color="red"/>
<trip id="veh4343" type="veh_car" depart="426.91" departLane="random" departSpeed="max" from="621543083#0" to="1137447878" color="red"/>
<trip id="veh4345" type="veh_car" depart="428.33" departLane="best" departSpeed="max" from="621543083#0" to="1147496804" color="red"/>
<trip id="veh4372" type="veh_car" depart="429.76" departLane="best" departSpeed="max" from="-1137447878" to="-621543083#1" color="blue"/>
<trip id="veh4379" type="veh_car" depart="431.17" departLane="random" departSpeed="max" from="621543083#0" to="1147496804" color="red"/>
<trip id="veh4386" type="veh_car" depart="431.35" departLane="best" departSpeed="max" from="621543083#0" to="1147496804" color="red"/>
<trip id="veh4388" type="veh_car" depart="431.44" departLane="random" departSpeed="max" from="621543083#0" to="1137447878" color="red"/>
<trip id="veh4413" type="veh_car" depart="434.53" departLane="best" departSpeed="max" from="-1137447878" to="-621543083#1" color="blue"/>
<trip id="veh4416" type="veh_car" depart="434.69" departLane="best" departSpeed="max" from="-1137447878" to="-621543083#1" color="blue"/>
<trip id="veh4417" type="veh_car" depart="434.69" departLane="best" departSpeed="max" from="-1137447878" to="-621543083#1" color="blue"/>
<trip id="veh4420" type="veh_car" depart="435.28" departLane="best" departSpeed="max" from="621543083#0" to="1147496804" color="red"/>
<trip id="veh4437" type="veh_car" depart="436.08" departLane="random" departSpeed="max" from="621543083#0" to="1137447878" color="red"/>
<trip id="veh4465" type="veh_car" depart="437.24" departLane="best" departSpeed="max" from="537037843#1" to="-621543083#1" color="blue"/>
<trip id="veh4476" type="veh_car" depart="437.99" departLane="random" departSpeed="max" from="621543083#0" to="1137447878" color="red"/>
<trip id="veh4504" type="veh_car" depart="439.26" departLane="best" departSpeed="max" from="621543083#0" to="1137447878" color="red"/>
<trip id="veh4523" type="veh_car" depart="441.09" departLane="best" departSpeed="max" from="621543083#0" to="1147496804" color="red"/>
<trip id="veh4533" type="veh_car" depart="441.27" departLane="random" departSpeed="max" from="621543083#0" to="1147496804" color="red"/>
<trip id="veh4546" type="veh_car" depart="442.49" departLane="best" departSpeed="max" from="537037843#1" to="-621543083#1" color="blue"/>
<trip id="veh4549" type="veh_car" depart="442.54" departLane="random" departSpeed="max" from="621543083#0" to="1147496804" color="red"/>
<trip id="veh4558" type="veh_car" depart="442.79" departLane="random" departSpeed="max" from="537037843#1" to="-621543083#1" color="blue"/>
<trip id="veh4593" type="veh_car" depart="444.43" departLane="random" departSpeed="max" from="537037843#1" to="-621543083#1" color="blue"/>
<trip id="veh4598" type="veh_car" depart="444.48" departLane="random" departSpeed="max" from="621543083#0" to="1147496804" color="red"/>
<trip id="veh4597" type="veh_car" depart="445.27" departLane="best" departSpeed="max" from="537037843#1" to="-621543083#1" color="blue"/>
<trip id="veh4617" type="veh_car" depart="446.34" departLane="best" departSpeed="max" from="621543083#0" to="1147496804" color="red"/>
<trip id="veh4640" type="veh_car" depart="447.72" departLane="best" departSpeed="max" from="537037843#1" to="-621543083#1" color="blue"/>
<trip id="veh4642" type="veh_car" depart="447.94" departLane="best" departSpeed="max" from="-1137447878" to="-621543083#1" color="blue"/>
<trip id="veh4638" type="veh_car" depart="448.22" departLane="random" departSpeed="max" from="621543083#0" to="1147496804" color="red"/>
<trip id="veh4651" type="veh_car" depart="448.40" departLane="best" departSpeed="max" from="-1137447878" to="-621543083#1" color="blue"/>
<trip id="veh4663" type="veh_car" depart="449.12" departLane="random" departSpeed="max" from="621543083#0" to="1147496804" color="red"/>
<trip id="veh4671" type="veh_car" depart="451.14" departLane="random" departSpeed="max" from="537037843#1" to="-621543083#1" color="blue"/>
<trip id="veh4682" type="veh_car" depart="451.29" departLane="random" departSpeed="max" from="621543083#0" to="1137447878" color="red"/>
<trip id="veh4684" type="veh_car" depart="451.49" departLane="random" departSpeed="max" from="621543083#0" to="1137447878" color="red"/>
<trip id="veh4686" type="veh_car" depart="451.57" departLane="random" departSpeed="max" from="621543083#0" to="1147496804" color="red"/>
<trip id="veh4689" type="veh_car" depart="451.67" departLane="best" departSpeed="max" from="621543083#0" to="1147496804" color="red"/>
<trip id="veh4709" type="veh_car" depart="452.92" departLane="random" departSpeed="max" from="-1137447878" to="-621543083#1" color="blue"/>
<trip id="veh4737" type="veh_car" depart="455.46" departLane="random" departSpeed="max" from="621543083#0" to="1137447878" color="red"/>
<trip id="veh4749" type="veh_car" depart="455.91" departLane="random" departSpeed="max" from="537037843#1" to="-621543083#1" color="blue"/>
<trip id="veh4784" type="veh_car" depart="458.00" departLane="random" departSpeed="max" from="621543083#0" to="1137447878" color="red"/>
<trip id="veh4786" type="veh_car" depart="458.09" departLane="random" departSpeed="max" from="621543083#0" to="1137447878" color="red"/>