<?xml version="1.0" encoding="UTF-8"?>

<!-- generated on 2024-06-04 07:37:56 by Eclipse SUMO netedit Version 1.19.0
-->

<routes xmlns:xsi="http://www.w3.org/2001/XMLSchema-instance" xsi:noNamespaceSchemaLocation="http://sumo.dlr.de/xsd/routes_file.xsd">
    <!-- VTypes -->
    <vType id="bus_bus" vClass="bus"/>
    <vType id="truck_truck" vClass="truck"/>
    <vType id="veh_car" vClass="passenger"/>
    <!-- Vehicles, persons and containers (sorted by depart) -->
    <trip id="veh37" type="veh_car" depart="0.00" departLane="random" departSpeed="max" color="red" from="621543083#0" to="1147496804"/>
    <trip id="veh48" type="veh_car" depart="0.97" departLane="random" departSpeed="max" color="red" from="621543083#0" to="1137447878"/>
    <trip id="veh68" type="veh_car" depart="1.09" departLane="random" departSpeed="max" color="blue" from="-1137447878" to="-621543083#1"/>
    <trip id="veh96" type="veh_car" depart="2.10" departLane="random" departSpeed="max" color="red" from="621543083#0" to="1137447878"/>
    <trip id="veh101" type="veh_car" depart="2.17" departLane="random" departSpeed="max" color="red" from="621543083#0" to="1147496804"/>
    <trip id="veh105" type="veh_car" depart="2.23" departLane="best" departSpeed="max" color="red" from="621543083#0" to="1147496804"/>
    <trip id="veh126" type="veh_car" depart="3.11" departLane="best" departSpeed="max" color="red" from="621543083#0" to="1137447878"/>
    <trip id="veh129" type="veh_car" depart="3.18" departLane="random" departSpeed="max" color="red" from="621543083#0" to="1147496804"/>
    <trip id="veh164" type="veh_car" depart="4.39" departLane="random" departSpeed="max" color="blue" from="-1137447878" to="-621543083#1"/>
    <trip id="veh171" type="veh_car" depart="4.71" departLane="random" departSpeed="max" color="red" from="621543083#0" to="1137447878"/>
    <trip id="veh174" type="veh_car" depart="4.87" departLane="random" departSpeed="max" color="red" from="621543083#0" to="1147496804"/>
    <trip id="veh169" type="veh_car" depart="4.90" departLane="best" departSpeed="max" color="red" from="621543083#0" to="1147496804"/>
    <trip id="veh177" type="veh_car" depart="4.99" departLane="best" departSpeed="max" color="red" from="621543083#0" to="1137447878"/>
    <trip id="veh182" type="veh_car" depart="5.06" departLane="best" departSpeed="max" color="red" from="621543083#0" to="1147496804"/>
    <trip id="truck135" type="truck_truck" depart="6.43" departLane="best" departSpeed="max" color="244,194,194" from="621543083#0" to="1137447878"/>
    <trip id="veh135" type="veh_car" depart="6.46" departLane="best" departSpeed="max" color="red" from="621543083#0" to="1147496804"/>
    <trip id="veh223" type="veh_car" depart="6.59" departLane="random" departSpeed="max" color="red" from="621543083#0" to="1137447878"/>
    <trip id="veh225" type="veh_car" depart="6.69" departLane="best" departSpeed="max" color="blue" from="-1137447878" to="-621543083#1"/>
    <trip id="bus228" type="bus_bus" depart="6.78" departLane="best" departSpeed="max" color="red" from="621543083#0" to="1147496804"/>
    <trip id="bus240" type="bus_bus" depart="7.23" departLane="random" departSpeed="max" color="red" from="621543083#0" to="1147496804"/>
    <trip id="truck240" type="truck_truck" depart="7.23" departLane="best" departSpeed="max" color="244,194,194" from="621543083#0" to="1137447878"/>
    <trip id="truck246" type="truck_truck" depart="7.51" departLane="random" departSpeed="max" color="244,194,194" from="621543083#0" to="1147496804"/>
    <trip id="veh283" type="veh_car" depart="8.65" departLane="best" departSpeed="max" color="red" from="621543083#0" to="1147496804"/>
    <trip id="veh290" type="veh_car" depart="8.84" departLane="best" departSpeed="max" color="red" from="621543083#0" to="1137447878"/>
    <trip id="veh232" type="veh_car" depart="9.73" departLane="best" departSpeed="max" color="blue" from="-1137447878" to="-621543083#1"/>
    <trip id="veh311" type="veh_car" depart="10.58" departLane="best" departSpeed="max" color="red" from="621543083#0" to="1147496804"/>
    <trip id="veh342" type="veh_car" depart="10.65" departLane="random" departSpeed="max" color="red" from="621543083#0" to="1137447878"/>
    <trip id="veh348" type="veh_car" depart="10.77" departLane="random" departSpeed="max" color="red" from="621543083#0" to="1137447878"/>
    <trip id="veh346" type="veh_car" depart="12.49" departLane="random" departSpeed="max" color="red" from="621543083#0" to="1137447878"/>
    <trip id="veh399" type="veh_car" depart="12.62" departLane="best" departSpeed="max" color="red" from="621543083#0" to="1137447878"/>
    <trip id="veh376" type="veh_car" depart="12.74" departLane="best" departSpeed="max" color="red" from="621543083#0" to="1137447878"/>
    <trip id="veh424" type="veh_car" depart="14.07" departLane="random" departSpeed="max" color="blue" from="-1137447878" to="-621543083#1"/>
    <trip id="veh446" type="veh_car" depart="14.39" departLane="random" departSpeed="max" color="red" from="621543083#0" to="1137447878"/>
    <trip id="veh453" type="veh_car" depart="14.65" departLane="random" departSpeed="max" color="red" from="621543083#0" to="1137447878"/>
    <trip id="veh459" type="veh_car" depart="14.94" departLane="best" departSpeed="max" color="blue" from="-1137447878" to="-621543083#1"/>
    <trip id="bus472" type="bus_bus" depart="16.93" departLane="random" departSpeed="max" color="red" from="621543083#0" to="1137447878"/>
    <trip id="veh501" type="veh_car" depart="17.31" departLane="random" departSpeed="max" color="red" from="621543083#0" to="1147496804"/>
    <trip id="veh505" type="veh_car" depart="17.37" departLane="best" departSpeed="max" color="red" from="621543083#0" to="1137447878"/>
    <trip id="veh462" type="veh_car" depart="17.50" departLane="best" departSpeed="max" color="blue" from="-537037843#1" to="-621543083#1"/>
    <trip id="veh512" type="veh_car" depart="17.63" departLane="random" departSpeed="max" color="red" from="621543083#0" to="1147496804"/>
    <trip id="veh517" type="veh_car" depart="17.72" departLane="best" departSpeed="max" color="red" from="621543083#0" to="1137447878"/>
    <trip id="veh538" type="veh_car" depart="19.01" departLane="random" departSpeed="max" color="red" from="621543083#0" to="1137447878"/>
    <trip id="veh541" type="veh_car" depart="19.14" departLane="best" departSpeed="max" color="red" from="621543083#0" to="1137447878"/>
    <trip id="bus536" type="bus_bus" depart="19.24" departLane="random" departSpeed="max" color="red" from="621543083#0" to="1147496804"/>
    <trip id="veh589" type="veh_car" depart="22.63" departLane="random" departSpeed="max" color="red" from="621543083#0" to="1147496804"/>
    <trip id="veh556" type="veh_car" depart="23.42" departLane="best" departSpeed="max" color="blue" from="-1137447878" to="-621543083#1"/>
    <trip id="truck556" type="truck_truck" depart="23.80" departLane="random" departSpeed="max" color="0,144,248" from="-537037843#1" to="-621543083#1"/>
    <trip id="veh598" type="veh_car" depart="23.93" departLane="random" departSpeed="max" color="blue" from="-537037843#1" to="-621543083#1"/>
    <trip id="truck598" type="truck_truck" depart="23.99" departLane="best" departSpeed="max" color="0,144,248" from="-537037843#1" to="-621543083#1"/>
    <trip id="veh620" type="veh_car" depart="26.17" departLane="best" departSpeed="max" color="red" from="621543083#0" to="1147496804"/>
    <trip id="veh658" type="veh_car" depart="33.96" departLane="random" departSpeed="max" color="blue" from="-1137447878" to="-621543083#1"/>
    <trip id="veh835" type="veh_car" depart="87.67" departLane="best" departSpeed="max" color="red" from="621543083#0" to="1137447878"/>
    <trip id="veh856" type="veh_car" depart="89.26" departLane="random" departSpeed="max" color="red" from="621543083#0" to="1147496804"/>
    <trip id="veh885" type="veh_car" depart="91.13" departLane="random" departSpeed="max" color="red" from="621543083#0" to="1137447878"/>
    <trip id="veh940" type="veh_car" depart="92.75" departLane="best" departSpeed="max" color="red" from="621543083#0" to="1147496804"/>
    <trip id="veh972" type="veh_car" depart="95.14" departLane="best" departSpeed="max" color="red" from="621543083#0" to="1147496804"/>
    <trip id="veh1081" type="veh_car" depart="99.71" departLane="best" departSpeed="max" color="blue" from="-537037843#1" to="-621543083#1"/>
    <trip id="veh1127" type="veh_car" depart="99.94" departLane="random" departSpeed="max" color="blue" from="-1137447878" to="-621543083#1"/>
    <trip id="veh1122" type="veh_car" depart="100.93" departLane="best" departSpeed="max" color="red" from="621543083#0" to="1137447878"/>
    <trip id="veh1158" type="veh_car" depart="103.84" departLane="best" departSpeed="max" color="blue" from="-1137447878" to="-621543083#1"/>
    <trip id="secveh0" type="veh_car" depart="110.96" departLane="random" departSpeed="max" color="blue" from="-537037843#1" to="-621543083#1"/>
    <trip id="secveh86" type="veh_car" depart="111.06" departLane="best" departSpeed="max" color="blue" from="-537037843#1" to="-621543083#1"/>
    <trip id="sndtruck0" type="truck_truck" depart="111.35" departLane="random" departSpeed="max" color="blue" from="-537037843#1" to="-621543083#1"/>
    <trip id="sndtruck86" type="truck_truck" depart="111.38" departLane="best" departSpeed="max" color="blue" from="-537037843#1" to="-621543083#1"/>
    <trip id="secveh96" type="veh_car" depart="111.41" departLane="best" departSpeed="max" color="blue" from="-537037843#1" to="-621543083#1"/>
    <trip id="veh1486" type="veh_car" depart="129.54" departLane="random" departSpeed="max" color="blue" from="-1137447878" to="-621543083#1"/>
    <trip id="secveh295" type="veh_car" depart="131.91" departLane="random" departSpeed="max" color="red" from="621543083#0" to="1137447878"/>
    <trip id="secveh316" type="veh_car" depart="133.04" departLane="random" departSpeed="max" color="red" from="621543083#0" to="1137447878"/>
    <trip id="veh1570" type="veh_car" depart="134.17" departLane="best" departSpeed="max" color="blue" from="-537037843#1" to="-621543083#1"/>
    <trip id="secveh372" type="veh_car" depart="135.80" departLane="best" departSpeed="max" color="blue" from="-1137447878" to="-621543083#1"/>
    <trip id="secveh397" type="veh_car" depart="136.18" departLane="random" departSpeed="max" color="blue" from="-537037843#1" to="-621543083#1"/>
    <trip id="veh1622" type="veh_car" depart="138.01" departLane="random" departSpeed="max" color="blue" from="-537037843#1" to="-621543083#1"/>
    <trip id="veh1623" type="veh_car" depart="138.20" departLane="random" departSpeed="max" color="blue" from="-537037843#1" to="-621543083#1"/>
    <trip id="sndtruck424" type="truck_truck" depart="138.44" departLane="best" departSpeed="max" color="red" from="621543083#0" to="1147496804"/>
    <trip id="bus402" type="bus_bus" depart="139.01" departLane="best" departSpeed="max" color="blue" from="-1137447878" to="-621543083#1"/>
    <trip id="sndtruck402" type="truck_truck" depart="139.34" departLane="random" departSpeed="max" color="blue" from="-1137447878" to="-621543083#1"/>
    <trip id="veh1648" type="veh_car" depart="140.69" departLane="random" departSpeed="max" color="blue" from="-537037843#1" to="-621543083#1"/>
    <trip id="secveh481" type="veh_car" depart="140.74" departLane="best" departSpeed="max" color="red" from="621543083#0" to="1137447878"/>
    <trip id="veh1658" type="veh_car" depart="140.79" departLane="best" departSpeed="max" color="blue" from="-1137447878" to="-621543083#1"/>
    <trip id="secveh486" type="veh_car" depart="140.87" departLane="random" departSpeed="max" color="blue" from="-1137447878" to="-621543083#1"/>
    <trip id="secveh503" type="veh_car" depart="141.88" departLane="random" departSpeed="max" color="red" from="621543083#0" to="1137447878"/>
    <trip id="veh1681" type="veh_car" depart="143.15" departLane="best" departSpeed="max" color="blue" from="-1137447878" to="-621543083#1"/>
    <trip id="bus503" type="bus_bus" depart="143.47" departLane="random" departSpeed="max" color="blue" from="-1137447878" to="-621543083#1"/>
    <trip id="secveh491" type="veh_car" depart="143.80" departLane="random" departSpeed="max" color="red" from="621543083#0" to="1137447878"/>
    <trip id="veh1711" type="veh_car" depart="144.37" departLane="random" departSpeed="max" color="blue" from="-1137447878" to="-621543083#1"/>
    <trip id="veh1712" type="veh_car" depart="144.52" departLane="best" departSpeed="max" color="blue" from="-1137447878" to="-621543083#1"/>
    <trip id="secveh606" type="veh_car" depart="148.70" departLane="random" departSpeed="max" color="red" from="621543083#0" to="1147496804"/>
    <trip id="secveh674" type="veh_car" depart="150.83" departLane="best" departSpeed="max" color="blue" from="-537037843#1" to="-621543083#1"/>
    <trip id="secveh654" type="veh_car" depart="150.87" departLane="random" departSpeed="max" color="red" from="621543083#0" to="1147496804"/>
    <trip id="secveh677" type="veh_car" depart="150.97" departLane="random" departSpeed="max" color="red" from="621543083#0" to="1137447878"/>
    <trip id="secveh679" type="veh_car" depart="151.01" departLane="random" departSpeed="max" color="blue" from="-537037843#1" to="-621543083#1"/>
    <trip id="veh1815" type="veh_car" depart="152.11" departLane="best" departSpeed="max" color="blue" from="-537037843#1" to="-621543083#1"/>
    <trip id="veh1818" type="veh_car" depart="152.25" departLane="best" departSpeed="max" color="blue" from="-1137447878" to="-621543083#1"/>
    <trip id="secveh682" type="veh_car" depart="154.35" departLane="best" departSpeed="max" color="red" from="621543083#0" to="1137447878"/>
    <trip id="secveh779" type="veh_car" depart="155.96" departLane="random" departSpeed="max" color="blue" from="-537037843#1" to="-621543083#1"/>
    <trip id="secveh752" type="veh_car" depart="156.78" departLane="best" departSpeed="max" color="red" from="621543083#0" to="1147496804"/>
    <trip id="veh1903" type="veh_car" depart="158.59" departLane="best" departSpeed="max" color="blue" from="-1137447878" to="-621543083#1"/>
    <trip id="veh1978" type="veh_car" depart="162.10" departLane="best" departSpeed="max" color="blue" from="-1137447878" to="-621543083#1"/>
    <trip id="secveh921" type="veh_car" depart="165.97" departLane="best" departSpeed="max" color="blue" from="-537037843#1" to="-621543083#1"/>
    <trip id="secveh981" type="veh_car" depart="166.44" departLane="random" departSpeed="max" color="blue" from="-1137447878" to="-621543083#1"/>
    <trip id="veh2063" type="veh_car" depart="168.01" departLane="best" departSpeed="max" color="blue" from="-537037843#1" to="-621543083#1"/>
    <trip id="bus2045" type="bus_bus" depart="168.63" departLane="best" departSpeed="max" color="red" from="621543083#0" to="1137447878"/>
    <trip id="secveh938" type="veh_car" depart="168.92" departLane="random" departSpeed="max" color="blue" from="-1137447878" to="-621543083#1"/>
    <trip id="veh2021" type="veh_car" depart="168.92" departLane="random" departSpeed="max" color="red" from="621543083#0" to="1147496804"/>
    <trip id="secveh1020" type="veh_car" depart="169.25" departLane="random" departSpeed="max" color="blue" from="-1137447878" to="-621543083#1"/>
    <trip id="veh2088" type="veh_car" depart="170.07" departLane="best" departSpeed="max" color="red" from="621543083#0" to="1147496804"/>
    <trip id="veh2090" type="veh_car" depart="170.31" departLane="best" departSpeed="max" color="red" from="621543083#0" to="1147496804"/>
    <trip id="secveh986" type="veh_car" depart="170.93" departLane="random" departSpeed="max" color="blue" from="-1137447878" to="-621543083#1"/>
    <trip id="secveh1052" type="veh_car" depart="171.07" departLane="random" departSpeed="max" color="blue" from="-1137447878" to="-621543083#1"/>
    <trip id="veh2106" type="veh_car" depart="173.02" departLane="random" departSpeed="max" color="red" from="621543083#0" to="1137447878"/>
    <trip id="veh2129" type="veh_car" depart="173.16" departLane="best" departSpeed="max" color="red" from="621543083#0" to="1147496804"/>
    <trip id="truck2129" type="truck_truck" depart="173.21" departLane="random" departSpeed="max" color="244,194,194" from="621543083#0" to="1137447878"/>
    <trip id="veh2133" type="veh_car" depart="173.30" departLane="best" departSpeed="max" color="red" from="621543083#0" to="1147496804"/>
    <trip id="truck2133" type="truck_truck" depart="173.35" departLane="random" departSpeed="max" color="244,194,194" from="621543083#0" to="1137447878"/>
    <trip id="bus2188" type="bus_bus" depart="176.16" departLane="best" departSpeed="max" color="red" from="621543083#0" to="1137447878"/>
    <trip id="veh2177" type="veh_car" depart="176.16" departLane="random" departSpeed="max" color="red" from="621543083#0" to="1137447878"/>
    <trip id="veh2196" type="veh_car" depart="176.45" departLane="random" departSpeed="max" color="red" from="621543083#0" to="1147496804"/>
    <trip id="trdveh18" type="veh_car" depart="178.23" departLane="random" departSpeed="max" color="blue" from="-1137447878" to="-621543083#1"/>
    <trip id="trdveh6" type="veh_car" depart="179.17" departLane="random" departSpeed="max" color="red" from="621543083#0" to="1147496804"/>
    <trip id="trdveh26" type="veh_car" depart="179.29" departLane="random" departSpeed="max" color="red" from="621543083#0" to="1137447878"/>
    <trip id="veh2216" type="veh_car" depart="181.00" departLane="random" departSpeed="max" color="red" from="621543083#0" to="1147496804"/>
    <trip id="veh2244" type="veh_car" depart="181.76" departLane="best" departSpeed="max" color="blue" from="-537037843#1" to="-621543083#1"/>
    <trip id="veh2280" type="veh_car" depart="184.04" departLane="best" departSpeed="max" color="red" from="621543083#0" to="1147496804"/>
    <trip id="veh2288" type="veh_car" depart="184.36" departLane="random" departSpeed="max" color="red" from="621543083#0" to="1147496804"/>
    <trip id="truck2157" type="truck_truck" depart="184.68" departLane="random" departSpeed="max" color="244,194,194" from="621543083#0" to="1137447878"/>
    <trip id="trdveh79" type="veh_car" depart="185.14" departLane="best" departSpeed="max" color="red" from="621543083#0" to="1147496804"/>
    <trip id="secveh1182" type="veh_car" depart="185.37" departLane="best" departSpeed="max" color="blue" from="-1137447878" to="-621543083#1"/>
    <trip id="secveh1212" type="veh_car" depart="187.43" departLane="best" departSpeed="max" color="blue" from="-537037843#1" to="-621543083#1"/>
    <trip id="veh2321" type="veh_car" depart="187.75" departLane="best" departSpeed="max" color="red" from="621543083#0" to="1137447878"/>
    <trip id="bus1248" type="bus_bus" depart="190.56" departLane="best" departSpeed="max" color="blue" from="-1137447878" to="-621543083#1"/>
    <trip id="sndtruck1248" type="truck_truck" depart="190.56" departLane="random" departSpeed="max" color="blue" from="-1137447878" to="-621543083#1"/>
    <trip id="veh2366" type="veh_car" depart="191.21" departLane="random" departSpeed="max" color="red" from="621543083#0" to="1147496804"/>
    <trip id="bus2157" type="bus_bus" depart="192.28" departLane="best" departSpeed="max" color="red" from="621543083#0" to="1147496804"/>
    <trip id="veh2378" type="veh_car" depart="192.34" departLane="best" departSpeed="max" color="blue" from="-537037843#1" to="-621543083#1"/>
    <trip id="secveh1290" type="veh_car" depart="192.65" departLane="random" departSpeed="max" color="blue" from="-537037843#1" to="-621543083#1"/>
    <trip id="trdveh196" type="veh_car" depart="193.05" departLane="best" departSpeed="max" color="blue" from="-537037843#1" to="-621543083#1"/>
    <trip id="veh2408" type="veh_car" depart="193.64" departLane="best" departSpeed="max" color="red" from="621543083#0" to="1147496804"/>
    <trip id="veh2399" type="veh_car" depart="193.84" departLane="random" departSpeed="max" color="blue" from="-1137447878" to="-621543083#1"/>
    <trip id="truck2399" type="truck_truck" depart="194.04" departLane="random" departSpeed="max" color="0,144,248" from="-537037843#1" to="-621543083#1"/>
    <trip id="bus1336" type="bus_bus" depart="196.21" departLane="random" departSpeed="max" color="blue" from="-537037843#1" to="-621543083#1"/>
    <trip id="truck2438" type="truck_truck" depart="196.21" departLane="best" departSpeed="max" color="244,194,194" from="621543083#0" to="1147496804"/>
    <trip id="bus2438" type="bus_bus" depart="196.26" departLane="best" departSpeed="max" color="red" from="621543083#0" to="1137447878"/>
    <trip id="bus1342" type="bus_bus" depart="196.30" departLane="random" departSpeed="max" color="blue" from="-537037843#1" to="-621543083#1"/>
    <trip id="bus2441" type="bus_bus" depart="196.35" departLane="random" departSpeed="max" color="red" from="621543083#0" to="1147496804"/>
    <trip id="sndtruck1344" type="truck_truck" depart="196.39" departLane="best" departSpeed="max" color="blue" from="-1137447878" to="-621543083#1"/>
    <trip id="veh2442" type="veh_car" depart="196.49" departLane="best" departSpeed="max" color="red" from="621543083#0" to="1147496804"/>
    <trip id="truck2445" type="truck_truck" depart="196.55" departLane="random" departSpeed="max" color="244,194,194" from="621543083#0" to="1147496804"/>
    <trip id="truck2447" type="truck_truck" depart="196.70" departLane="random" departSpeed="max" color="244,194,194" from="621543083#0" to="1137447878"/>
    <trip id="trdveh246" type="veh_car" depart="196.74" departLane="best" departSpeed="max" color="blue" from="-1137447878" to="-621543083#1"/>
    <trip id="secveh1350" type="veh_car" depart="196.90" departLane="best" departSpeed="max" color="blue" from="-537037843#1" to="-621543083#1"/>
    <trip id="veh2458" type="veh_car" depart="197.72" departLane="random" departSpeed="max" color="blue" from="-537037843#1" to="-621543083#1"/>
    <trip id="trdveh257" type="veh_car" depart="197.88" departLane="best" departSpeed="max" color="blue" from="-1137447878" to="-621543083#1"/>
    <trip id="veh2446" type="veh_car" depart="198.28" departLane="best" departSpeed="max" color="red" from="621543083#0" to="1147496804"/>
    <trip id="veh2466" type="veh_car" depart="198.39" departLane="best" departSpeed="max" color="red" from="621543083#0" to="1137447878"/>
    <trip id="trdveh274" type="veh_car" depart="198.92" departLane="random" departSpeed="max" color="blue" from="-1137447878" to="-621543083#1"/>
    <trip id="trdveh289" type="veh_car" depart="199.04" departLane="random" departSpeed="max" color="blue" from="-1137447878" to="-621543083#1"/>
    <trip id="trdtruck289" type="truck_truck" depart="199.15" departLane="random" departSpeed="max" color="blue" from="-1137447878" to="-621543083#1"/>
    <trip id="secveh1367" type="veh_car" depart="199.63" departLane="best" departSpeed="max" color="blue" from="-537037843#1" to="-621543083#1"/>
    <trip id="trdveh304" type="veh_car" depart="199.71" departLane="best" departSpeed="max" color="blue" from="-1137447878" to="-621543083#1"/>
    <trip id="secveh1388" type="veh_car" depart="199.77" departLane="best" departSpeed="max" color="blue" from="-537037843#1" to="-621543083#1"/>
    <trip id="veh2484" type="veh_car" depart="200.23" departLane="random" departSpeed="max" color="red" from="621543083#0" to="1147496804"/>
    <trip id="truck2484" type="truck_truck" depart="200.48" departLane="random" departSpeed="max" color="244,194,194" from="621543083#0" to="1147496804"/>
    <trip id="veh2499" type="veh_car" depart="200.50" departLane="random" departSpeed="max" color="blue" from="-1137447878" to="-621543083#1"/>
    <trip id="trdveh318" type="veh_car" depart="201.55" departLane="random" departSpeed="max" color="blue" from="-1137447878" to="-621543083#1"/>
    <trip id="secveh1444" type="veh_car" depart="202.86" departLane="random" departSpeed="max" color="blue" from="-1137447878" to="-621543083#1"/>
    <trip id="veh2513" type="veh_car" depart="202.92" departLane="best" departSpeed="max" color="red" from="621543083#0" to="1147496804"/>
    <trip id="secveh1458" type="veh_car" depart="203.01" departLane="random" departSpeed="max" color="blue" from="-1137447878" to="-621543083#1"/>
    <trip id="secveh1468" type="veh_car" depart="203.54" departLane="random" departSpeed="max" color="blue" from="-537037843#1" to="-621543083#1"/>
    <trip id="veh2539" type="veh_car" depart="203.80" departLane="random" departSpeed="max" color="red" from="621543083#0" to="1147496804"/>
    <trip id="truck2539" type="truck_truck" depart="203.90" departLane="best" departSpeed="max" color="244,194,194" from="621543083#0" to="1147496804"/>
    <trip id="trdveh363" type="veh_car" depart="203.99" departLane="best" departSpeed="max" color="blue" from="-537037843#1" to="-621543083#1"/>
    <trip id="trdveh366" type="veh_car" depart="204.14" departLane="random" departSpeed="max" color="blue" from="-537037843#1" to="-621543083#1"/>
    <trip id="trdveh371" type="veh_car" depart="204.77" departLane="best" departSpeed="max" color="blue" from="-537037843#1" to="-621543083#1"/>
    <trip id="veh2548" type="veh_car" depart="205.08" departLane="best" departSpeed="max" color="red" from="621543083#0" to="1137447878"/>
    <trip id="veh2595" type="veh_car" depart="206.20" departLane="random" departSpeed="max" color="red" from="621543083#0" to="1137447878"/>
    <trip id="veh2596" type="veh_car" depart="206.29" departLane="best" departSpeed="max" color="red" from="621543083#0" to="1147496804"/>
    <trip id="bus1506" type="bus_bus" depart="206.40" departLane="random" departSpeed="max" color="red" from="621543083#0" to="1137447878"/>
    <trip id="sndtruck1506" type="truck_truck" depart="206.56" departLane="best" departSpeed="max" color="blue" from="-1137447878" to="-621543083#1"/>
    <trip id="veh2606" type="veh_car" depart="207.07" departLane="best" departSpeed="max" color="blue" from="-1137447878" to="-621543083#1"/>
    <trip id="veh2604" type="veh_car" depart="207.11" departLane="best" departSpeed="max" color="red" from="621543083#0" to="1137447878"/>
    <trip id="veh2608" type="veh_car" depart="207.21" departLane="best" departSpeed="max" color="red" from="621543083#0" to="1147496804"/>
    <trip id="trdveh424" type="veh_car" depart="208.71" departLane="best" departSpeed="max" color="blue" from="-537037843#1" to="-621543083#1"/>
    <trip id="veh2631" type="veh_car" depart="208.78" departLane="best" departSpeed="max" color="blue" from="-1137447878" to="-621543083#1"/>
    <trip id="trdveh431" type="veh_car" depart="209.21" departLane="random" departSpeed="max" color="blue" from="-537037843#1" to="-621543083#1"/>
    <trip id="veh2634" type="veh_car" depart="209.59" departLane="random" departSpeed="max" color="red" from="621543083#0" to="1147496804"/>
    <trip id="veh2653" type="veh_car" depart="209.97" departLane="best" departSpeed="max" color="red" from="621543083#0" to="1137447878"/>
    <trip id="truck2656" type="truck_truck" depart="210.20" departLane="random" departSpeed="max" color="244,194,194" from="621543083#0" to="1147496804"/>
    <trip id="veh2656" type="veh_car" depart="210.20" departLane="random" departSpeed="max" color="red" from="621543083#0" to="1147496804"/>
    <trip id="truck2646" type="truck_truck" depart="210.29" departLane="random" departSpeed="max" color="0,144,248" from="-537037843#1" to="-621543083#1"/>
    <trip id="veh2649" type="veh_car" depart="210.40" departLane="random" departSpeed="max" color="blue" from="-537037843#1" to="-621543083#1"/>
    <trip id="bus1568" type="bus_bus" depart="210.52" departLane="random" departSpeed="max" color="blue" from="-537037843#1" to="-621543083#1"/>
    <trip id="veh2686" type="veh_car" depart="211.86" departLane="best" departSpeed="max" color="red" from="621543083#0" to="1137447878"/>
    <trip id="trdveh456" type="veh_car" depart="211.99" departLane="best" departSpeed="max" color="blue" from="-537037843#1" to="-621543083#1"/>
    <trip id="trdveh466" type="veh_car" depart="212.18" departLane="best" departSpeed="max" color="blue" from="-1137447878" to="-621543083#1"/>
    <trip id="bus458" type="bus_bus" depart="213.35" departLane="random" departSpeed="max" color="blue" from="-1137447878" to="-621543083#1"/>
    <trip id="trdtruck458" type="truck_truck" depart="213.37" departLane="best" departSpeed="max" color="blue" from="-537037843#1" to="-621543083#1"/>
    <trip id="secveh1640" type="veh_car" depart="213.42" departLane="best" departSpeed="max" color="blue" from="-537037843#1" to="-621543083#1"/>
    <trip id="veh2713" type="veh_car" depart="214.04" departLane="best" departSpeed="max" color="red" from="621543083#0" to="1147496804"/>
    <trip id="secveh1676" type="veh_car" depart="214.79" departLane="best" departSpeed="max" color="blue" from="-1137447878" to="-621543083#1"/>
    <trip id="secveh1681" type="veh_car" depart="215.05" departLane="random" departSpeed="max" color="blue" from="-537037843#1" to="-621543083#1"/>
    <trip id="trdveh483" type="veh_car" depart="215.63" departLane="random" departSpeed="max" color="blue" from="-537037843#1" to="-621543083#1"/>
    <trip id="trdveh498" type="veh_car" depart="215.88" departLane="best" departSpeed="max" color="blue" from="-1137447878" to="-621543083#1"/>
    <trip id="veh2744" type="veh_car" depart="216.53" departLane="random" departSpeed="max" color="red" from="621543083#0" to="1137447878"/>
    <trip id="veh2748" type="veh_car" depart="216.53" departLane="best" departSpeed="max" color="blue" from="-1137447878" to="-621543083#1"/>
    <trip id="secveh1715" type="veh_car" depart="216.82" departLane="random" departSpeed="max" color="blue" from="-1137447878" to="-621543083#1"/>