<?xml version="1.0" encoding="UTF-8"?>

<!-- generated on 2024-03-24 02:47:50.680972 by osmWebWizard.py v1_19_0+0000-baa66a0f364
<configuration>
    <net-file value="C:\Users\jaehyeok\Sumo\2024-03-24-02-47-42\osm.net.xml.gz"/>
    <output-trip-file value="C:\Users\jaehyeok\Sumo\2024-03-24-02-47-42\osm.passenger.trips.xml"/>
    <route-file value="C:\Users\jaehyeok\Sumo\2024-03-24-02-47-42\osm.passenger.rou.xml"/>
    <prefix value="veh"/>
    <trip-attributes value="departLane=&quot;best&quot;"/>
    <fringe-start-attributes value="departSpeed=&quot;max&quot;"/>
    <vehicle-class value="passenger"/>
    <lanes value="True"/>
    <fringe-factor value="5"/>
    <allow-fringe.min-length value="1000.0"/>
    <via-edge-types value="highway.motorway,highway.motorway_link,highway.trunk_link,highway.primary_link,highway.secondary_link,highway.tertiary_link"/>
    <min-distance value="300.0"/>
    <min-distance.fringe value="10.0"/>
    <remove-loops value="True"/>
    <validate value="True"/>
    <insertion-density value="12.0"/>
</configuration>
-->

<!-- generated on 2024-03-24 02:47:50 by Eclipse SUMO duarouter Version 1.19.0
<configuration xmlns:xsi="http://www.w3.org/2001/XMLSchema-instance" xsi:noNamespaceSchemaLocation="http://sumo.dlr.de/xsd/duarouterConfiguration.xsd">

    <input>
        <net-file value="C:\Users\jaehyeok\Sumo\2024-03-24-02-47-42\osm.net.xml.gz"/>
        <route-files value="C:\Users\jaehyeok\Sumo\2024-03-24-02-47-42\osm.passenger.trips.xml"/>
    </input>

    <output>
        <output-file value="C:\Users\jaehyeok\Sumo\2024-03-24-02-47-42\osm.passenger.trips.xml.tmp"/>
        <alternatives-output value="NUL"/>
        <write-trips value="true"/>
    </output>

    <processing>
        <remove-loops value="true"/>
    </processing>

    <time>
        <begin value="0.0"/>
        <end value="3600.0"/>
    </time>

    <report>
        <no-warnings value="true"/>
        <ignore-errors value="true"/>
        <no-step-log value="true"/>
    </report>

</configuration>
-->

<routes xmlns:xsi="http://www.w3.org/2001/XMLSchema-instance" xsi:noNamespaceSchemaLocation="http://sumo.dlr.de/xsd/routes_file.xsd">
    <vType id="veh_passenger" vClass="passenger"/>
    <trip id="veh0" type="veh_passenger" depart="0.00" departLane="best" from="317191837#5" to="1238894565" color="255,0,0"/>
    <trip id="veh1" type="veh_passenger" depart="0.00" departLane="best" from="-525074967#1" to="429770747#3"/>
    <trip id="veh2" type="veh_passenger" depart="0.00" departLane="random" from="1213731681" to="367323954#6" departSpeed="0.2" color="255,255,0"/>
    <trip id="veh3" type="veh_passenger" depart="0.00" departLane="best" from="1213731681" to="367323954#6" departSpeed="20" color="255,0,255"/>
    <trip id="veh4" type="veh_passenger" depart="0.00" departLane="free" from="1213731681" to="367323954#6" departSpeed="20" color="255,0,255"/>
    <trip id="veh5" type="veh_passenger" depart="0.00" departLane="best" from="1213731681" to="367323954#6" departSpeed="20" color="255,0,255"/>
    <trip id="veh6" type="veh_passenger" depart="0.00" departLane="free" from="1213731681" to="367323954#6" departSpeed="20" color="255,0,255"/>

    <!-- <trip id="veh4" type="veh_passenger" depart="0.00" departLane="random" from="1213731681" to="367323954#6"/>
    <trip id="veh5" type="veh_passenger" depart="0.00" departLane="random" from="1213731681" to="367323954#6"/>
    <trip id="veh6" type="veh_passenger" depart="0.00" departLane="random" from="1213731681" to="367323954#6"/> -->
    <trip id="veh7" type="veh_passenger" depart="0.00" departLane="random" from="1213731681" to="367323954#6"/>
    <trip id="veh8" type="veh_passenger" depart="0.00" departLane="random" from="1213731681" to="367323954#6"/>
    <trip id="veh9" type="veh_passenger" depart="0.00" departLane="random" from="1213731681" to="367323954#6"/>

    <!-- <trip id="veh3" type="veh_passenger" depart="2.64" departLane="best" from="525074965#0-AddedOffRampEdge" to="-310327708#8"/> -->
    <!-- <trip id="veh4" type="veh_passenger" depart="3.52" departLane="best" departSpeed="max" from="233962706" to="-182129435#3"/>
    <trip id="veh5" type="veh_passenger" depart="4.40" departLane="best" from="-376796429#2" to="313031072"/>
    <trip id="veh6" type="veh_passenger" depart="5.28" departLane="best" from="1208062949#1" to="-377004281#0"/>
    <trip id="veh7" type="veh_passenger" depart="6.16" departLane="best" from="317091481#4" to="-314809029#2"/>
    <trip id="veh8" type="veh_passenger" depart="7.04" departLane="best" from="-377004279#4" to="315156939#8"/> -->
    <!-- <trip id="veh10" type="veh_passenger" depart="0.00" departLane="best" from="-487613728#0" to="372741861#1"/>
    <trip id="veh11" type="veh_passenger" depart="0.00" departLane="best" from="313592409#4" to="-367323956#2"/>
    <trip id="veh12" type="veh_passenger" depart="0.00" departLane="best" from="900013637#1" to="182129432#1"/>
    <trip id="veh13" type="veh_passenger" depart="0.00" departLane="best" departSpeed="max" from="525074953" to="315171751#2-AddedOnRampEdge"/>
    <trip id="veh14" type="veh_passenger" depart="0.00" departLane="best" from="-487613728#4" to="525074970#2"/>
    <trip id="veh15" type="veh_passenger" depart="0.00" departLane="best" from="314341192#1-AddedOnRampEdge" to="-975857848#1"/>
    <trip id="veh16" type="veh_passenger" depart="0.00" departLane="best" from="-228781869#1" to="314841805"/>
    <trip id="veh17" type="veh_passenger" depart="0.00" departLane="best" from="525074927#0" to="315306669"/>
    <trip id="veh18" type="veh_passenger" depart="0.00" departLane="best" from="37397185#1" to="-228781877#1"/>
    <trip id="veh20" type="veh_passenger" depart="0.00" departLane="best" from="-233962710#0" to="-524657925#1"/>
    <trip id="veh21" type="veh_passenger" depart="0.00" departLane="best" from="-310327707#1" to="1040122019#7"/>
    <trip id="veh22" type="veh_passenger" depart="0.00" departLane="best" from="316712979#1" to="228781883#1"/>
    <trip id="veh23" type="veh_passenger" depart="0.00" departLane="best" from="-228781849" to="393908340#0"/>
    <trip id="veh24" type="veh_passenger" depart="0.00" departLane="best" from="-525074958#2" to="-71397841#3"/>
    <trip id="veh25" type="veh_passenger" depart="0.00" departLane="best" from="317091479#5" to="315171752#1-AddedOnRampEdge"/>
    <trip id="veh26" type="veh_passenger" depart="0.00" departLane="best" from="317191837#4" to="382864414#6"/>
    <trip id="veh27" type="veh_passenger" depart="0.00" departLane="best" from="-317091485#3" to="228781894#3"/>
    <trip id="veh28" type="veh_passenger" depart="0.00" departLane="best" from="989323725#0" to="317091478#3"/>
    <trip id="veh29" type="veh_passenger" depart="0.00" departLane="best" from="314841804" to="367518084#0"/>
    <trip id="veh31" type="veh_passenger" depart="0.00" departLane="best" from="384163838#2" to="-228340943#0"/>
    <trip id="veh33" type="veh_passenger" depart="0.00" departLane="best" from="37400910#13" to="726084117"/>
    <trip id="veh34" type="veh_passenger" depart="0.00" departLane="best" from="525074960#1" to="1208062949#0"/>
    <trip id="veh35" type="veh_passenger" depart="0.00" departLane="best" from="-317091485#2" to="228781903#4"/>
    <trip id="veh36" type="veh_passenger" depart="0.00" departLane="best" from="600968885#0" to="310398094#3"/>
    <trip id="veh37" type="veh_passenger" depart="0.00" departLane="best" from="525074932#0" to="525074967#4"/>
    <trip id="veh38" type="veh_passenger" depart="0.00" departLane="best" from="314841806#0" to="-732503289#0"/>
    <trip id="veh39" type="veh_passenger" depart="0.00" departLane="best" from="1229817203#0" to="525074970#7"/>
    <trip id="veh40" type="veh_passenger" depart="0.00" departLane="best" from="228781894#3" to="406372638#2"/>
    <trip id="veh42" type="veh_passenger" depart="0.00" departLane="best" departSpeed="max" from="309700572#1" to="-228781880#1"/>
    <trip id="veh43" type="veh_passenger" depart="0.00" departLane="best" from="-310398094#4" to="315306678#5"/>
    <trip id="veh44" type="veh_passenger" depart="0.00" departLane="best" from="429770765#4" to="236366205#0"/>
    <trip id="veh45" type="veh_passenger" depart="0.00" departLane="best" from="-228781882#0" to="429770747#0"/>
    <trip id="veh46" type="veh_passenger" depart="0.00" departLane="best" from="989774305#1" to="314341192#1-AddedOnRampEdge"/>
    <trip id="veh49" type="veh_passenger" depart="0.00" departLane="best" from="367489814#3" to="314455473#3"/>
    <trip id="veh50" type="veh_passenger" depart="0.00" departLane="best" from="525074958#1" to="317091478#5"/>
    <trip id="veh51" type="veh_passenger" depart="0.00" departLane="best" from="-310398094#9" to="309788546#0"/>
    <trip id="veh53" type="veh_passenger" depart="0.00" departLane="best" from="525074960#1" to="-732503289#0"/>
    <trip id="veh54" type="veh_passenger" depart="0.00" departLane="best" from="311965295#0" to="-372741862#0"/>
    <trip id="veh55" type="veh_passenger" depart="0.00" departLane="best" from="555468858#1" to="525074960#1"/>
    <trip id="veh56" type="veh_passenger" depart="0.00" departLane="best" from="-975857848#0" to="317091477#0"/>
    <trip id="veh57" type="veh_passenger" depart="0.00" departLane="best" from="315171751#2-AddedOffRampEdge" to="-321497209#0"/>
    <trip id="veh58" type="veh_passenger" depart="0.00" departLane="best" from="384325731" to="314752444#0"/>
    <trip id="veh59" type="veh_passenger" depart="0.00" departLane="best" from="-429770747#3" to="314341192#4"/>
    <trip id="veh60" type="veh_passenger" depart="0.00" departLane="best" from="-1040122019#1" to="165485216#3"/>
    <trip id="veh61" type="veh_passenger" depart="0.00" departLane="best" departSpeed="max" from="-1103244342" to="71397803#5"/>
    <trip id="veh62" type="veh_passenger" depart="0.00" departLane="best" from="525074960#3" to="525074928#0"/>
    <trip id="veh63" type="veh_passenger" depart="0.00" departLane="best" from="1035288197#1" to="-228781900#4"/>
    <trip id="veh64" type="veh_passenger" depart="0.00" departLane="best" from="525074960#3" to="891406155#2"/>
    <trip id="veh65" type="veh_passenger" depart="0.00" departLane="best" from="-228781898#4" to="384325732"/>
    <trip id="veh66" type="veh_passenger" depart="0.00" departLane="best" from="-393908340#1" to="-317091477#0"/>
    <trip id="veh67" type="veh_passenger" depart="0.00" departLane="best" from="310398094#8" to="314841804"/>
    <trip id="veh68" type="veh_passenger" depart="0.00" departLane="best" from="-525074932#1" to="-525074960#3"/>
    <trip id="veh69" type="veh_passenger" depart="0.00" departLane="best" departSpeed="max" from="233962706" to="406372581#0"/>
    <trip id="veh70" type="veh_passenger" depart="0.00" departLane="best" from="314341193" to="525074970#2"/>
    <trip id="veh71" type="veh_passenger" depart="0.00" departLane="best" from="-370242075#5" to="1103598048"/>
    <trip id="veh72" type="veh_passenger" depart="0.00" departLane="best" from="989774305#0" to="317091483#6"/>
    <trip id="veh73" type="veh_passenger" depart="0.00" departLane="best" from="-234955436#0" to="313592400"/>
    <trip id="veh74" type="veh_passenger" depart="0.00" departLane="best" from="-312895043#2" to="429770763"/>
    <trip id="veh75" type="veh_passenger" depart="0.00" departLane="best" from="1208062949#0" to="315156939#7"/>
    <trip id="veh76" type="veh_passenger" depart="0.00" departLane="best" from="-384166032#1" to="429770747#0"/>
    <trip id="veh77" type="veh_passenger" depart="0.00" departLane="best" from="-228781900#1" to="316712979#0"/>
    <trip id="veh78" type="veh_passenger" depart="0.00" departLane="best" from="-384163838#2" to="555468854#0"/>
    <trip id="veh79" type="veh_passenger" depart="0.00" departLane="best" from="525074955#0" to="-236366205#1"/>
    <trip id="veh80" type="veh_passenger" depart="0.00" departLane="best" from="-406372581#8" to="321497219#0"/>
    <trip id="veh81" type="veh_passenger" depart="0.00" departLane="best" from="-37400910#9" to="-317091481#2"/>
    <trip id="veh82" type="veh_passenger" depart="0.00" departLane="best" from="71397829" to="315156938#0-AddedOffRampEdge"/>
    <trip id="veh84" type="veh_passenger" depart="0.00" departLane="best" from="-487613730#0" to="-37400910#4"/>
    <trip id="veh85" type="veh_passenger" depart="0.00" departLane="best" from="-310175656" to="236366216#0"/>
    <trip id="veh86" type="veh_passenger" depart="0.00" departLane="best" from="233962713" to="310801005#4"/>
    <trip id="veh87" type="veh_passenger" depart="0.00" departLane="best" from="377004281#3" to="367323954#0"/>
    <trip id="veh88" type="veh_passenger" depart="0.00" departLane="best" from="989312046#7" to="311884718#1"/>
    <trip id="veh89" type="veh_passenger" depart="0.00" departLane="best" from="228781895#2" to="-182129435#3"/>
    <trip id="veh90" type="veh_passenger" depart="0.00" departLane="best" from="525074955#1" to="600968887#0"/>
    <trip id="veh91" type="veh_passenger" depart="0.00" departLane="best" from="-367518084#1" to="310327706#2"/>
    <trip id="veh92" type="veh_passenger" depart="0.00" departLane="best" departSpeed="max" from="233962706" to="1040122024"/>
    <trip id="veh93" type="veh_passenger" depart="0.00" departLane="best" from="-429770763" to="71397785#1"/>
    <trip id="veh94" type="veh_passenger" depart="0.00" departLane="best" from="236366211#2" to="525074957-AddedOnRampEdge"/>
    <trip id="veh95" type="veh_passenger" depart="0.00" departLane="best" from="314760455#2" to="228781886#0"/>
    <trip id="veh96" type="veh_passenger" depart="0.00" departLane="best" departSpeed="max" from="989805722" to="525074931#0"/>
    <trip id="veh97" type="veh_passenger" depart="0.00" departLane="best" from="911412830#4-AddedOnRampEdge" to="71397802#3"/>
    <trip id="veh98" type="veh_passenger" depart="0.00" departLane="best" departSpeed="max" from="525074953" to="-367518084#6"/>
    <trip id="veh99" type="veh_passenger" depart="0.00" departLane="best" from="310801009#1" to="406372581#6"/>
    <trip id="veh100" type="veh_passenger" depart="0.00" departLane="best" from="228781894#5" to="-228781901#2"/>
    <trip id="veh101" type="veh_passenger" depart="0.00" departLane="best" from="-228781869#2" to="989323718#1-AddedOnRampEdge"/>
    <trip id="veh102" type="veh_passenger" depart="0.00" departLane="best" from="-525074933#0" to="525074934#0"/>
    <trip id="veh103" type="veh_passenger" depart="0.00" departLane="best" from="310175653#1" to="236366205#2"/>
    <trip id="veh104" type="veh_passenger" depart="0.00" departLane="best" from="900013637#1" to="989805720#1"/>
    <trip id="veh105" type="veh_passenger" depart="0.00" departLane="best" from="311965295#3" to="376998094#1"/>
    <trip id="veh107" type="veh_passenger" depart="0.00" departLane="best" from="911412830#4-AddedOnRampEdge" to="315156939#11"/>
    <trip id="veh108" type="veh_passenger" depart="0.00" departLane="best" from="314341194#5" to="384163838#2"/>
    <trip id="veh109" type="veh_passenger" depart="0.00" departLane="best" from="-228781869#0" to="315156939#6-AddedOffRampEdge"/>
    <trip id="veh110" type="veh_passenger" depart="0.00" departLane="best" from="311965295#2" to="228781872#0"/>
    <trip id="veh111" type="veh_passenger" depart="0.00" departLane="best" from="-317091481#4" to="911412830#4-AddedOnRampEdge"/>
    <trip id="veh112" type="veh_passenger" depart="0.00" departLane="best" from="37398443" to="-37400754"/>
    <trip id="veh113" type="veh_passenger" depart="0.00" departLane="best" from="315156939#7" to="367323956#0"/>
    <trip id="veh114" type="veh_passenger" depart="0.00" departLane="best" from="-406372581#0" to="-315204735"/>
    <trip id="veh115" type="veh_passenger" depart="0.00" departLane="best" from="525074964#0" to="-525074967#3"/>
    <trip id="veh116" type="veh_passenger" depart="0.00" departLane="best" from="315156939#7" to="315306671"/>
    <trip id="veh117" type="veh_passenger" depart="0.00" departLane="best" departSpeed="max" from="233962671#0" to="315156939#6"/>
    <trip id="veh118" type="veh_passenger" depart="0.00" departLane="best" from="-313031073#7" to="-71397841#2"/>
    <trip id="veh119" type="veh_passenger" depart="0.00" departLane="best" from="-37397513#0" to="376796429#1"/>
    <trip id="veh120" type="veh_passenger" depart="0.00" departLane="best" from="-406372581#9" to="228781903#4"/>
    <trip id="veh121" type="veh_passenger" depart="0.00" departLane="best" from="321497219#1" to="1101388294#0"/>
    <trip id="veh123" type="veh_passenger" depart="0.00" departLane="best" from="-228781901#1" to="310398094#2"/>
    <trip id="veh124" type="veh_passenger" depart="0.00" departLane="best" from="-228781901#2" to="406372581#5"/>
    <trip id="veh125" type="veh_passenger" depart="0.00" departLane="best" from="-525074933#0" to="-71397841#1"/>
    <trip id="veh126" type="veh_passenger" depart="0.00" departLane="best" from="525074961#12" to="525074961#5-AddedOnRampEdge"/>
    <trip id="veh127" type="veh_passenger" depart="0.00" departLane="best" from="228781846" to="367489814#1"/>
    <trip id="veh128" type="veh_passenger" depart="0.00" departLane="best" from="525074928#2-AddedOffRampEdge" to="37400258#0"/>
    <trip id="veh129" type="veh_passenger" depart="0.00" departLane="best" from="315171751#2-AddedOnRampEdge" to="989323725#0"/>
    <trip id="veh131" type="veh_passenger" depart="0.00" departLane="best" from="-524657925#0" to="1096882806#4"/>
    <trip id="veh132" type="veh_passenger" depart="0.00" departLane="best" from="317191837#4" to="726084117"/>
    <trip id="veh133" type="veh_passenger" depart="0.00" departLane="best" from="-314752441#1" to="314752444#5"/>
    <trip id="veh134" type="veh_passenger" depart="0.00" departLane="best" departSpeed="max" from="-310398094#10" to="314841805"/>
    <trip id="veh135" type="veh_passenger" depart="0.00" departLane="best" from="525074960#3" to="315171751#2-AddedOnRampEdge"/>
    <trip id="veh136" type="veh_passenger" depart="0.00" departLane="best" from="37400910#8" to="-377004283"/>
    <trip id="veh137" type="veh_passenger" depart="0.00" departLane="best" from="316712979#0" to="776752517#0"/>
    <trip id="veh138" type="veh_passenger" depart="0.00" departLane="best" from="311791473#4" to="555468854#0"/>
    <trip id="veh139" type="veh_passenger" depart="0.00" departLane="best" departSpeed="max" from="525074953" to="310801005#0"/>
    <trip id="veh140" type="veh_passenger" depart="0.00" departLane="best" from="233962713" to="1040122019#2"/>
    <trip id="veh141" type="veh_passenger" depart="0.00" departLane="best" from="-1040122024" to="406372638#2"/>
    <trip id="veh142" type="veh_passenger" depart="0.00" departLane="best" from="316712979#1" to="-732503289#0"/>
    <trip id="veh143" type="veh_passenger" depart="0.00" departLane="best" from="383631131#13" to="314841804"/>
    <trip id="veh145" type="veh_passenger" depart="0.00" departLane="best" from="-228781903#2" to="525074962#1"/>
    <trip id="veh146" type="veh_passenger" depart="0.00" departLane="best" from="525074970#9" to="-314809029#3"/>
    <trip id="veh147" type="veh_passenger" depart="0.00" departLane="best" from="525074929#0" to="315156939#5"/>
    <trip id="veh148" type="veh_passenger" depart="0.00" departLane="best" from="-315306677#5" to="-316226903"/>
    <trip id="veh149" type="veh_passenger" depart="0.00" departLane="best" from="1035568423" to="525074970#9"/>
    <trip id="veh150" type="veh_passenger" depart="0.00" departLane="best" from="429774072#0" to="524657928"/>
    <trip id="veh151" type="veh_passenger" depart="0.00" departLane="best" from="525074969#2-AddedOnRampEdge" to="393908340#1"/>
    <trip id="veh152" type="veh_passenger" depart="0.00" departLane="best" from="-429770747#4" to="-313031071#3"/>
    <trip id="veh153" type="veh_passenger" depart="0.00" departLane="best" from="429770748#0" to="525074963#0"/>
    <trip id="veh154" type="veh_passenger" depart="0.00" departLane="best" from="228781896#3" to="315306676"/>
    <trip id="veh155" type="veh_passenger" depart="0.00" departLane="best" from="-317091478#4" to="71397803#6"/>
    <trip id="veh156" type="veh_passenger" depart="0.00" departLane="best" from="525074957" to="976198922"/>
    <trip id="veh157" type="veh_passenger" depart="0.00" departLane="best" from="-493014170#2" to="525074962#0"/>
    <trip id="veh158" type="veh_passenger" depart="0.00" departLane="best" from="-1208062949#0" to="311791473#0"/>
    <trip id="veh159" type="veh_passenger" depart="0.00" departLane="best" departSpeed="max" from="-1103244343" to="71397829"/>
    <trip id="veh160" type="veh_passenger" depart="0.00" departLane="best" from="429774080#3" to="525074957-AddedOnRampEdge"/>
    <trip id="veh161" type="veh_passenger" depart="0.00" departLane="best" from="493014170#2" to="-911412837"/>
    <trip id="veh162" type="veh_passenger" depart="0.00" departLane="best" departSpeed="max" from="429770758" to="-313046184#1"/>
    <trip id="veh163" type="veh_passenger" depart="0.00" departLane="best" from="525074959#4" to="524657928"/>
    <trip id="veh164" type="veh_passenger" depart="0.00" departLane="best" from="-377004281#1" to="524657928"/>
    <trip id="veh165" type="veh_passenger" depart="0.00" departLane="best" from="310175654#7" to="1101388294#3"/>
    <trip id="veh166" type="veh_passenger" depart="0.00" departLane="best" from="429770801#0" to="-487613728#1"/>
    <trip id="veh167" type="veh_passenger" depart="0.00" departLane="best" from="-1103598048" to="-376796428#0"/>
    <trip id="veh168" type="veh_passenger" depart="0.00" departLane="best" from="1101388294#2" to="525074957-AddedOnRampEdge"/>
    <trip id="veh169" type="veh_passenger" depart="0.00" departLane="best" from="911412830#4" to="1040122024"/>
    <trip id="veh170" type="veh_passenger" depart="0.00" departLane="best" from="-316712980" to="233962675#1"/>
    <trip id="veh171" type="veh_passenger" depart="0.00" departLane="best" from="989312046#12" to="-314386876#1"/>
    <trip id="veh172" type="veh_passenger" depart="0.00" departLane="best" from="71397841#2" to="-314752444#5"/>
    <trip id="veh173" type="veh_passenger" depart="0.00" departLane="best" from="911412832#1" to="-372741862#0"/>
    <trip id="veh174" type="veh_passenger" depart="0.00" departLane="best" from="911412830#1" to="899910819#0"/>
    <trip id="veh175" type="veh_passenger" depart="0.00" departLane="best" departSpeed="max" from="-310398094#10" to="309788546#0"/>
    <trip id="veh176" type="veh_passenger" depart="0.00" departLane="best" from="-377004281#2" to="1103598051#1"/>
    <trip id="veh178" type="veh_passenger" depart="0.00" departLane="best" from="228781882#0" to="315156939#0"/>
    <trip id="veh179" type="veh_passenger" depart="0.00" departLane="best" from="487613728#0" to="37400910#2"/>
    <trip id="veh180" type="veh_passenger" depart="0.00" departLane="best" from="-1040122019#5" to="311791473#7"/>
    <trip id="veh181" type="veh_passenger" depart="0.00" departLane="best" from="314341192#5-AddedOnRampEdge" to="377004279#2"/>
    <trip id="veh182" type="veh_passenger" depart="0.00" departLane="best" from="383631131#2" to="321497219#2"/>
    <trip id="veh183" type="veh_passenger" depart="0.00" departLane="best" from="228340937" to="-236366204#1"/>
    <trip id="veh184" type="veh_passenger" depart="0.00" departLane="best" from="317191838#0" to="166211648#0"/>
    <trip id="veh186" type="veh_passenger" depart="0.00" departLane="best" from="376796429#0" to="1101388294#0"/>
    <trip id="veh189" type="veh_passenger" depart="0.00" departLane="best" from="-313031073#7" to="234955436#1"/>
    <trip id="veh190" type="veh_passenger" depart="0.00" departLane="best" from="71397841#3" to="367323957#0"/>
    <trip id="veh191" type="veh_passenger" depart="0.00" departLane="best" from="382864414#5" to="315207163#2"/>
    <trip id="veh192" type="veh_passenger" depart="0.00" departLane="best" departSpeed="max" from="-976198922" to="314841803#1"/>
    <trip id="veh194" type="veh_passenger" depart="0.00" departLane="best" from="317091484#0" to="-310801005#0"/>
    <trip id="veh195" type="veh_passenger" depart="0.00" departLane="best" from="236366211#1" to="406372581#6"/>
    <trip id="veh196" type="veh_passenger" depart="0.00" departLane="best" from="310398094#2" to="367323954#1"/>
    <trip id="veh197" type="veh_passenger" depart="0.00" departLane="best" from="429774072#0" to="-370242072#0"/>
    <trip id="veh198" type="veh_passenger" depart="0.00" departLane="best" departSpeed="max" from="-234955436#1" to="313592400"/>
    <trip id="veh199" type="veh_passenger" depart="0.00" departLane="best" from="316226903" to="167314845#6"/>
    <trip id="veh200" type="veh_passenger" depart="0.00" departLane="best" from="524657927#1" to="384166032#2"/>
    <trip id="veh201" type="veh_passenger" depart="0.00" departLane="best" departSpeed="max" from="321497220#0" to="-429770763"/>
    <trip id="veh202" type="veh_passenger" depart="0.00" departLane="best" from="-370242075#1" to="-167314845#2"/>
    <trip id="veh203" type="veh_passenger" depart="0.00" departLane="best" departSpeed="max" from="-406404308#1" to="311791476"/>
    <trip id="veh204" type="veh_passenger" depart="0.00" departLane="best" departSpeed="max" from="525074953" to="-236366216#2"/>
    <trip id="veh205" type="veh_passenger" depart="0.00" departLane="best" from="228781903#2" to="316712979#0"/>
    <trip id="veh206" type="veh_passenger" depart="0.00" departLane="best" from="-368484998#2" to="370242076#0"/>
    <trip id="veh207" type="veh_passenger" depart="0.00" departLane="best" from="311884716#1" to="-525074960#3"/>
    <trip id="veh209" type="veh_passenger" depart="0.00" departLane="best" from="-383770772#0" to="406372600#6"/>
    <trip id="veh210" type="veh_passenger" depart="0.00" departLane="best" departSpeed="max" from="-310398094#10" to="236366211#2"/>
    <trip id="veh211" type="veh_passenger" depart="0.00" departLane="best" departSpeed="max" from="-318063107" to="911412830#4"/>
    <trip id="veh212" type="veh_passenger" depart="0.00" departLane="best" from="313031071#1" to="-228781882#2"/>
    <trip id="veh213" type="veh_passenger" depart="0.00" departLane="best" from="-429770747#4" to="525074937#1-AddedOnRampEdge"/>
    <trip id="veh214" type="veh_passenger" depart="0.00" departLane="best" from="-310327707#0" to="429774080#2"/>
    <trip id="veh215" type="veh_passenger" depart="0.00" departLane="best" from="317217787#1" to="989323725#0"/>
    <trip id="veh216" type="veh_passenger" depart="0.00" departLane="best" from="315156939#7" to="899947109"/>
    <trip id="veh217" type="veh_passenger" depart="0.00" departLane="best" from="525074965#0" to="315207163#1"/>
    <trip id="veh218" type="veh_passenger" depart="0.00" departLane="best" from="-376796428#1" to="313031071#4"/>
    <trip id="veh219" type="veh_passenger" depart="0.00" departLane="best" from="525074927#2" to="314841803#1"/>
    <trip id="veh220" type="veh_passenger" depart="0.00" departLane="best" from="525074969#1" to="311791473#6"/>
    <trip id="veh221" type="veh_passenger" depart="0.00" departLane="best" from="-310398094#5" to="-71397841#3"/>
    <trip id="veh222" type="veh_passenger" depart="0.00" departLane="best" from="-429770747#2" to="317091476#0"/>
    <trip id="veh223" type="veh_passenger" depart="0.00" departLane="best" from="-393908340#1" to="313592414"/>
    <trip id="veh224" type="veh_passenger" depart="0.00" departLane="best" from="315306673" to="1035288197#0"/>
    <trip id="veh226" type="veh_passenger" depart="0.00" departLane="best" from="525074960#3" to="1213731668#3"/>
    <trip id="veh227" type="veh_passenger" depart="0.00" departLane="best" from="314341194#1" to="-317091484#1"/>
    <trip id="veh228" type="veh_passenger" depart="0.00" departLane="best" departSpeed="max" from="-384166032#2" to="-370242075#1"/>
    <trip id="veh229" type="veh_passenger" depart="0.00" departLane="best" from="-37397513#3" to="-228781905#0"/>
    <trip id="veh230" type="veh_passenger" depart="0.00" departLane="best" from="228781898#2" to="314760455#0"/>
    <trip id="veh231" type="veh_passenger" depart="0.00" departLane="best" from="228781903#5" to="384163838#0"/>
    <trip id="veh232" type="veh_passenger" depart="0.00" departLane="best" departSpeed="max" from="233962671#0" to="550003415"/>
    <trip id="veh233" type="veh_passenger" depart="0.00" departLane="best" from="315156939#1" to="-370242075#5"/>
    <trip id="veh234" type="veh_passenger" depart="0.00" departLane="best" from="525074954#0-AddedOffRampEdge" to="406372581#5"/>
    <trip id="veh236" type="veh_passenger" depart="0.00" departLane="best" from="165485222#0" to="384325726"/>
    <trip id="veh237" type="veh_passenger" depart="0.00" departLane="best" departSpeed="max" from="525074954#0" to="900013637#3"/>
    <trip id="veh238" type="veh_passenger" depart="0.00" departLane="best" departSpeed="max" from="233962671#0" to="384163838#1"/>
    <trip id="veh239" type="veh_passenger" depart="0.00" departLane="best" from="314752443" to="315171751#2-AddedOffRampEdge"/>
    <trip id="veh240" type="veh_passenger" depart="0.00" departLane="best" from="-377004279#4" to="406372638#2"/>
    <trip id="veh242" type="veh_passenger" depart="0.00" departLane="best" from="1103598051#1" to="367489814#2"/>
    <trip id="veh243" type="veh_passenger" depart="0.00" departLane="best" from="228781895#3-AddedOnRampEdge" to="-367518084#3"/>
    <trip id="veh244" type="veh_passenger" depart="0.00" departLane="best" from="-310327707#1" to="-316226903"/>
    <trip id="veh245" type="veh_passenger" depart="0.00" departLane="best" from="315207163#2" to="-182129432#0"/>