<?xml version="1.0" encoding="UTF-8"?>

<!-- generated on 2024-05-18 17:01:55 by Eclipse SUMO polyconvert Version 1.20.0
<configuration xmlns:xsi="http://www.w3.org/2001/XMLSchema-instance" xsi:noNamespaceSchemaLocation="http://sumo.dlr.de/xsd/polyconvertConfiguration.xsd">

    <input>
        <net-file value="osm.net.xml.gz"/>
        <osm-files value="osm_bbox.osm.xml.gz"/>
        <osm.keep-full-type value="true"/>
        <osm.merge-relations value="1"/>
        <type-file value="${SUMO_HOME}/data/typemap/osmPolyconvert.typ.xml"/>
    </input>

    <output>
        <output-file value="osm.poly.xml.gz"/>
    </output>

    <report>
        <verbose value="true"/>
    </report>

</configuration>
-->

<additional xmlns:xsi="http://www.w3.org/2001/XMLSchema-instance" xsi:noNamespaceSchemaLocation="http://sumo.dlr.de/xsd/additional_file.xsd">
    <location netOffset="-288463.07,-4137076.13" convBoundary="-212.86,-55.23,6659.42,5901.14" origBoundary="126.607935,37.357192,126.685113,37.409493" projParameter="+proj=utm +zone=52 +ellps=WGS84 +datum=WGS84 +units=m +no_defs"/>

    <poly id="1011687990" type="leisure.park" color="207,245,201" fill="1" layer="-2.00" shape="1158.107910,5832.116175 1300.409956,5860.229721 947.497003,5789.639801 1087.909625,5818.274981 1158.107910,5832.116175"/>
    <poly id="10147599" type="building.yes" color="255,230,230" fill="1" layer="-1.00" shape="4138.742117,2560.277440 4097.203902,2594.874553 4112.143044,2615.222320 4127.364659,2632.676224 4144.288960,2654.473686 4105.330355,2684.820768 4083.976539,2701.573215 4179.927218,2817.607256 4283.341588,2733.619169 4231.660728,2670.502640 4228.508257,2666.650318 4226.233131,2663.875448 4138.742117,2560.277440"/>
    <poly id="10147599#1" type="shop.mall" color="237,199,255" fill="1" layer="-1.00" shape="4138.742117,2560.277440 4097.203902,2594.874553 4112.143044,2615.222320 4127.364659,2632.676224 4144.288960,2654.473686 4105.330355,2684.820768 4083.976539,2701.573215 4179.927218,2817.607256 4283.341588,2733.619169 4231.660728,2670.502640 4228.508257,2666.650318 4226.233131,2663.875448 4138.742117,2560.277440"/>
    <poly id="1028824191" type="landuse.construction" color="194,194,130" fill="1" layer="-3.00" shape="4.007663,4088.807092 12.749832,4087.330828 22.136639,4086.471151 32.835073,4088.076592 49.283754,4093.900122 167.478331,4155.230196 173.541239,4146.959839 189.986392,4127.811435 213.941167,4107.840031 247.274296,4087.020598 240.579251,4070.323518 228.225518,4028.175608 218.266602,3981.592217 210.272674,3938.090337 204.490883,3883.284388 202.026053,3785.922735 7.712519,3789.600619 12.730275,4061.737195 11.726136,4071.756010 5.631543,4078.772570 -0.501431,4083.924678 4.007663,4088.807092"/>
    <poly id="1028824192" type="leisure.park" color="207,245,201" fill="1" layer="-2.00" shape="267.105203,4075.270572 333.488851,4037.492454 346.473650,4032.822367 361.164891,4030.818435 333.422250,3970.083498 353.347688,3959.252922 337.625388,3920.510118 373.770615,3903.295448 356.176527,3855.350572 341.542379,3794.839166 328.051087,3714.723025 323.972868,3682.747593 322.680863,3631.681021 334.450325,3514.505665 344.435136,3467.562009 261.170936,3420.357131 250.789465,3455.463291 239.215180,3515.549701 230.833991,3594.320601 224.091918,3750.787166 228.075582,3879.811476 237.995753,3958.463400 267.105203,4075.270572"/>
    <poly id="1028824193" type="landuse.construction" color="194,194,130" fill="1" layer="-3.00" shape="448.375847,3979.656321 454.412536,3982.945814 594.753437,3890.724088 598.518588,3878.448200 582.908366,3856.368810 555.163984,3813.043855 532.884953,3763.029652 519.588946,3708.091562 518.222321,3623.882413 518.577057,3615.834376 520.467984,3601.262956 524.948429,3575.922129 529.043103,3558.452469 534.409193,3540.106798 549.840486,3501.442400 560.742985,3480.247542 531.451165,3466.186601 518.126645,3458.506514 508.811808,3451.024893 501.015807,3443.693653 495.067254,3436.193578 487.030013,3424.227106 457.952864,3362.248554 450.789838,3367.692801 440.783844,3376.684391 411.042764,3412.501885 398.742495,3437.973917 385.326407,3491.488824 376.930659,3531.208133 370.540845,3574.218934 366.615907,3621.853162 366.877157,3678.064602 371.744124,3736.324766 379.901161,3783.853260 393.761000,3831.626143 448.375847,3979.656321"/>
    <poly id="1028824194" type="building.school" color="255,230,230" fill="1" layer="-1.00" shape="819.794654,4089.803120 876.055468,4052.429364 854.254891,4019.868452 829.239107,4036.478063 822.352708,4026.192242 829.079608,4021.736417 826.454914,4017.783144 837.661745,4010.405013 820.872466,3985.101620 817.922742,3982.311336 814.655115,3981.316768 810.688265,3981.050488 761.086462,3992.695858 767.522899,4019.892788 812.483308,4009.341737 819.967910,4020.511847 787.720773,4041.945473 819.794654,4089.803120"/>
    <poly id="1035288198" type="leisure.garden" color="207,245,201" fill="1" layer="-2.00" shape="1923.121332,4061.068239 1922.071419,4063.004419 1920.424911,4064.467023 1918.372404,4065.284714 1916.168145,4065.351173 1914.266731,4064.777123 1912.643549,4063.640908 1911.434749,4062.072351 1910.785332,4060.201054 1910.735728,4058.225864 1911.299249,4056.324105 1912.418939,4054.697071 1913.983043,4053.480813 1915.853250,4052.812046 1918.058348,4052.778877 1920.149034,4053.481417 1921.866882,4054.859535 1923.012655,4056.740576 1923.447697,4058.894847 1923.121332,4061.068239"/>
    <poly id="1035288201" type="amenity.parking" color="184,184,179" fill="1" layer="-1.00" shape="2383.442637,4305.046811 2379.591749,4300.912865 2369.469726,4310.249216 2378.691987,4320.155630 2387.212917,4319.398029 2389.789299,4322.164869 2391.719923,4320.373236 2394.941046,4317.405603 2390.462053,4312.598973 2383.442637,4305.046811"/>
    <poly id="1035289826" type="building.yes" color="255,230,230" fill="1" layer="-1.00" shape="2293.440001,4300.585039 2298.966251,4305.465299 2348.920791,4315.694184 2406.112398,4262.618447 2427.413101,4286.112799 2514.896429,4210.493900 2490.118762,4071.865184 2417.582317,4138.060378 2424.118256,4169.097541 2364.106898,4224.575502 2370.200179,4230.518642 2293.440001,4300.585039"/>
    <poly id="1035289826#1" type="tourism.museum" color="207,245,201" fill="1" layer="-2.00" shape="2293.440001,4300.585039 2298.966251,4305.465299 2348.920791,4315.694184 2406.112398,4262.618447 2427.413101,4286.112799 2514.896429,4210.493900 2490.118762,4071.865184 2417.582317,4138.060378 2424.118256,4169.097541 2364.106898,4224.575502 2370.200179,4230.518642 2293.440001,4300.585039"/>
    <poly id="1035290547" type="leisure.park" color="207,245,201" fill="1" layer="-2.00" shape="2651.855362,3928.345050 2652.903396,3928.096755 2653.682765,3927.733043 2654.250725,3927.063724 2654.731259,3926.441007 2655.148706,3925.775454 2655.493380,3925.033998 2655.759451,3923.983611 2656.525483,3919.900561 2657.051380,3912.947713 2656.504109,3909.841324 2655.923803,3908.601149 2654.632392,3906.912422 2652.631884,3905.563441 2650.643838,3904.358493 2648.415076,3903.092949 2646.984012,3902.196066 2645.300013,3900.750338 2644.805497,3899.752294 2644.154359,3898.513893 2643.012315,3896.421703 2641.140378,3894.192330 2640.088109,3893.563557 2639.314226,3893.438578 2638.180951,3893.466938 2637.417898,3893.774725 2636.576305,3894.484203 2635.770715,3895.570300 2635.232958,3896.738522 2635.025565,3898.009511 2635.061944,3899.463159 2635.267621,3900.601673 2635.414622,3901.519585 2635.823378,3902.630809 2636.443481,3903.337019 2637.584563,3903.974673 2638.746374,3904.378635 2640.041824,3904.812563 2640.766194,3905.083126 2641.288872,3905.436462 2641.550105,3905.962893 2641.688252,3906.881026 2641.616376,3907.549035 2641.380413,3908.032391 2640.849224,3908.400996 2640.445841,3908.566540 2640.234218,3908.960458 2640.126405,3909.962471 2640.205663,3911.359529 2640.415782,3912.675588 2640.615071,3913.558881 2640.918629,3914.006528 2641.303780,3914.174545 2641.737056,3914.141496 2642.363447,3914.036992 2642.563749,3913.898738 2642.663884,3913.651955 2642.650278,3913.108224 2642.759822,3912.883412 2642.961235,3912.789544 2643.164315,3912.762255 2643.279968,3912.781568 2643.362151,3912.879442 2643.392044,3913.011936 2643.385851,3914.888583 2643.353769,3915.022628 2643.269119,3915.180196 2643.076837,3915.284939 2642.662935,3915.384125 2642.372152,3915.446919 2642.294968,3915.548782 2642.236880,3915.705685 2642.241323,3915.883230 2642.263784,3916.426739 2642.340445,3916.657994 2642.521684,3916.820011 2642.877497,3916.877728 2643.842827,3916.864674 2644.136943,3916.935039 2644.321792,3917.241311 2644.364982,3917.551128 2644.376645,3918.017184 2644.391362,3918.605301 2644.514235,3918.913124 2645.191003,3919.051637 2646.748974,3919.001546 2647.009896,3919.161569 2647.192802,3919.390166 2647.302410,3919.875977 2647.664055,3920.166722 2648.002439,3920.235978 2648.469185,3920.124367 2648.735874,3919.806795 2648.781221,3919.494762 2648.850075,3919.060003 2649.135304,3918.775278 2649.329252,3918.737114 2649.666526,3918.761984 2650.123617,3918.972616 2650.392592,3919.454439 2650.577163,3919.749615 2650.954572,3919.962241 2651.133867,3920.046582 2651.217437,3920.199940 2651.257573,3920.387695 2651.226601,3920.566126 2651.104871,3920.658000 2647.786960,3920.829856 2647.621239,3920.933935 2647.476003,3921.148536 2647.139969,3922.589297 2647.154228,3924.221155 2647.444436,3926.967561 2647.694037,3927.383248 2648.128455,3927.749896 2648.694012,3928.046641 2649.328732,3928.275035 2650.225730,3928.363623 2651.855362,3928.345050"/>
    <poly id="1035290548" type="leisure.park" color="207,245,201" fill="1" layer="-2.00" shape="2580.084446,3905.247282 2578.717224,3903.715912 2576.385363,3900.809648 2575.330207,3899.003982 2574.511045,3897.070271 2574.348759,3895.542049 2574.538920,3893.583071 2575.582165,3892.435502 2577.032402,3891.266641 2578.269944,3890.802625 2579.694559,3890.733653 2581.065254,3890.988033 2582.812562,3891.777058 2585.282888,3893.136470 2586.559559,3893.881759 2588.027401,3894.477916 2590.100872,3894.847948 2593.288487,3894.779263 2596.146916,3895.362822 2598.401139,3896.583302 2600.066573,3897.640863 2601.173701,3899.045504 2601.480974,3900.703339 2601.133072,3902.377573 2599.989726,3904.127234 2598.245683,3905.592136 2595.906777,3907.005308 2594.380953,3907.631986 2593.134248,3907.729813 2592.452479,3907.391566 2592.019689,3906.736188 2591.909244,3906.217088 2591.307158,3905.876847 2590.829058,3905.888814 2590.346514,3905.723236 2589.862546,3905.146865 2589.713318,3904.140181 2589.818105,3903.371416 2589.757205,3903.062042 2589.515377,3902.957060 2589.169805,3902.954607 2588.844162,3903.040483 2588.672643,3903.266846 2588.635874,3903.567561 2588.623479,3904.134150 2588.430399,3904.560917 2588.154302,3904.856519 2587.632489,3904.891788 2587.203067,3904.724881 2586.688406,3904.338037 2586.165205,3904.317823 2585.657245,3904.552608 2585.356809,3904.937648 2585.000509,3905.568363 2584.469321,3905.936972 2583.241469,3906.434055 2582.524319,3906.452006 2581.539058,3906.376738 2580.623481,3905.899999 2580.084446,3905.247282"/>
    <poly id="1035290548#1" type="tourism.zoo" color="207,245,201" fill="1" layer="-2.00" shape="2580.084446,3905.247282 2578.717224,3903.715912 2576.385363,3900.809648 2575.330207,3899.003982 2574.511045,3897.070271 2574.348759,3895.542049 2574.538920,3893.583071 2575.582165,3892.435502 2577.032402,3891.266641 2578.269944,3890.802625 2579.694559,3890.733653 2581.065254,3890.988033 2582.812562,3891.777058 2585.282888,3893.136470 2586.559559,3893.881759 2588.027401,3894.477916 2590.100872,3894.847948 2593.288487,3894.779263 2596.146916,3895.362822 2598.401139,3896.583302 2600.066573,3897.640863 2601.173701,3899.045504 2601.480974,3900.703339 2601.133072,3902.377573 2599.989726,3904.127234 2598.245683,3905.592136 2595.906777,3907.005308 2594.380953,3907.631986 2593.134248,3907.729813 2592.452479,3907.391566 2592.019689,3906.736188 2591.909244,3906.217088 2591.307158,3905.876847 2590.829058,3905.888814 2590.346514,3905.723236 2589.862546,3905.146865 2589.713318,3904.140181 2589.818105,3903.371416 2589.757205,3903.062042 2589.515377,3902.957060 2589.169805,3902.954607 2588.844162,3903.040483 2588.672643,3903.266846 2588.635874,3903.567561 2588.623479,3904.134150 2588.430399,3904.560917 2588.154302,3904.856519 2587.632489,3904.891788 2587.203067,3904.724881 2586.688406,3904.338037 2586.165205,3904.317823 2585.657245,3904.552608 2585.356809,3904.937648 2585.000509,3905.568363 2584.469321,3905.936972 2583.241469,3906.434055 2582.524319,3906.452006 2581.539058,3906.376738 2580.623481,3905.899999 2580.084446,3905.247282"/>
    <poly id="1035290549" type="leisure.park" color="207,245,201" fill="1" layer="-2.00" shape="2585.024400,3917.848244 2584.030564,3917.784294 2583.489621,3917.409212 2583.154222,3916.751397 2583.017180,3915.877650 2583.405562,3915.112890 2584.250759,3914.547661 2585.052001,3914.349948 2585.842758,3914.441190 2586.597023,3914.844242 2586.833642,3915.449012 2586.991169,3916.433281 2586.627126,3917.108604 2585.897582,3917.693145 2585.024400,3917.848244"/>
    <poly id="1035290550" type="leisure.park" color="207,245,201" fill="1" layer="-2.00" shape="2582.403947,3911.906842 2581.817936,3911.854890 2581.519097,3911.595886 2581.169602,3911.082770 2581.104813,3910.618044 2581.090647,3910.052120 2581.197412,3909.716342 2581.593571,3909.262285 2582.287180,3909.011749 2582.958950,3908.950519 2583.385595,3909.006461 2583.725091,3909.120101 2584.049379,3909.334053 2584.192184,3909.730205 2584.250063,3910.272828 2584.153263,3910.652770 2583.862792,3911.081975 2583.535518,3911.456583 2583.162031,3911.754623 2582.403947,3911.906842"/>
    <poly id="1035290551" type="leisure.park" color="207,245,201" fill="1" layer="-2.00" shape="2589.060884,3915.237812 2587.861192,3915.090186 2587.101093,3914.454105 2586.541852,3913.701962 2586.088265,3912.569655 2585.997992,3911.794669 2586.423143,3910.729194 2587.189734,3909.855035 2588.056251,3909.433618 2589.586830,3909.350892 2590.846277,3909.408194 2592.172179,3909.996802 2592.412131,3910.734731 2592.431852,3911.522586 2592.140617,3912.629123 2591.764977,3913.549014 2591.262330,3914.349944 2590.473031,3915.024808 2589.060884,3915.237812"/>
    <poly id="1035327851" type="amenity.shelter" color="237,199,199" fill="1" layer="-1.00" shape="2239.879508,4267.384833 2247.169901,4268.778725 2248.604472,4261.336689 2241.314073,4259.942795 2239.879508,4267.384833"/>
    <poly id="1035327851#1" type="building.yes" color="255,230,230" fill="1" layer="-1.00" shape="2239.879508,4267.384833 2247.169901,4268.778725 2248.604472,4261.336689 2241.314073,4259.942795 2239.879508,4267.384833"/>
    <poly id="1035327852" type="amenity.shelter" color="237,199,199" fill="1" layer="-1.00" shape="2237.015421,4280.703183 2241.661619,4281.574890 2242.468887,4277.379714 2237.822408,4276.496910 2237.015421,4280.703183"/>
    <poly id="1035327852#1" type="building.yes" color="255,230,230" fill="1" layer="-1.00" shape="2237.015421,4280.703183 2241.661619,4281.574890 2242.468887,4277.379714 2237.822408,4276.496910 2237.015421,4280.703183"/>
    <poly id="1035501454" type="landuse.commercial" color="209,209,204" fill="1" layer="-3.00" shape="2525.233232,3824.432318 2468.827033,3755.148734 2467.455079,3756.260135 2405.925883,3806.456963 2377.622677,3829.539675 2365.774104,3838.941451 2300.607146,3890.640447 2283.795993,3904.574847 2314.686614,3918.645968 2317.800984,3919.189707 2320.583179,3918.498178 2323.798004,3914.919991 2325.221645,3913.751751 2326.651728,3913.194043 2328.411113,3913.050016 2330.600851,3913.816798 2435.931181,3961.310049 2441.356771,3963.228291 2446.568717,3964.752161 2450.932575,3965.664377 2456.712576,3965.108770 2462.030040,3962.710464 2477.019827,3949.976815 2478.984906,3946.019161 2479.886555,3940.633581 2466.029855,3858.181694 2466.378725,3855.485905 2467.780757,3853.807470 2468.989435,3852.544708 2472.432123,3849.571572 2479.535277,3843.830817 2485.030621,3840.395451 2492.378833,3836.302994 2525.233232,3824.432318"/>
    <poly id="1035501455" type="amenity.parking" color="184,184,179" fill="1" layer="-1.00" shape="2313.740519,3907.055387 2300.607146,3890.640447 2365.774104,3838.941451 2377.622677,3829.539675 2387.107105,3841.404880 2362.784210,3860.690454 2366.433364,3865.251392 2313.740519,3907.055387"/>
    <poly id="1035501456" type="amenity.parking" color="184,184,179" fill="1" layer="-1.00" shape="2431.853728,3822.584869 2440.723907,3815.589535 2432.207780,3804.888093 2423.337317,3811.872340 2431.853728,3822.584869"/>
    <poly id="1035501458" type="amenity.parking" color="184,184,179" fill="1" layer="-1.00" shape="2467.455079,3756.260135 2476.441052,3767.327365 2414.482895,3816.313488 2405.925883,3806.456963 2467.455079,3756.260135"/>
    <poly id="1035501461" type="leisure.garden" color="207,245,201" fill="1" layer="-2.00" shape="2402.205382,3830.167363 2400.487638,3831.620545 2398.389931,3832.405932 2396.149922,3832.462053 2394.113743,3831.813545 2392.390141,3830.557616 2391.150675,3828.823209 2390.532877,3826.795640 2390.594875,3824.673313 2391.333098,3822.667287 2392.664847,3821.012807 2394.452076,3819.857677 2396.520765,3819.328398 2398.650960,3819.485996 2400.719263,3820.355771 2402.369575,3821.868918 2403.428948,3823.841012 2403.759016,3826.053448 2403.335399,3828.240351 2402.205382,3830.167363"/>
    <poly id="1035501462" type="building.hotel" color="255,230,230" fill="1" layer="-1.00" shape="2460.722120,3846.822490 2491.070862,3822.634012 2478.945840,3807.559291 2448.605925,3831.747590 2460.722120,3846.822490"/>
    <poly id="1035501463" type="building.hotel" color="255,230,230" fill="1" layer="-1.00" shape="2433.741360,3852.317225 2438.946760,3858.882256 2450.702434,3849.660570 2428.150730,3821.178652 2419.062558,3828.312704 2436.408878,3850.229565 2433.741360,3852.317225"/>
    <poly id="1035501464" type="building.hotel" color="255,230,230" fill="1" layer="-1.00" shape="2410.669409,3861.067387 2422.591882,3851.785962 2420.194083,3848.725940 2426.859283,3843.540182 2419.968060,3834.752269 2415.136534,3838.515260 2413.004106,3835.792800 2410.180000,3837.995425 2404.579395,3830.862927 2403.883711,3829.969867 2399.051910,3833.721770 2399.710790,3834.560234 2405.219801,3841.572886 2400.223121,3845.462162 2402.355274,3848.173521 2397.193714,3852.200173 2404.020471,3860.889751 2408.061298,3857.746152 2410.669409,3861.067387"/>
    <poly id="1035501467" type="building.hotel" color="255,230,230" fill="1" layer="-1.00" shape="2400.832133,3861.991153 2394.813141,3854.425003 2385.534699,3861.741519 2384.125901,3859.966942 2379.095774,3863.934795 2380.449503,3865.633026 2375.984031,3869.153696 2374.392319,3867.150530 2367.911151,3872.253998 2371.762588,3877.109664 2370.276959,3878.279449 2374.439150,3883.515953 2391.058570,3870.408213 2393.748036,3873.794026 2400.846157,3868.208775 2397.808852,3864.376430 2400.832133,3861.991153"/>
    <poly id="1035501468" type="building.hotel" color="255,230,230" fill="1" layer="-1.00" shape="2360.856080,3907.839931 2347.028510,3890.587348 2338.793686,3897.122730 2343.613380,3903.142196 2341.207619,3905.067879 2345.304783,3910.183860 2347.519933,3908.429507 2352.421800,3914.546850 2360.856080,3907.839931"/>
    <poly id="1035501469" type="building.hotel" color="255,230,230" fill="1" layer="-1.00" shape="2373.836584,3883.864158 2367.626645,3876.102947 2364.273609,3878.762984 2362.627382,3876.705669 2357.424093,3880.833325 2358.923934,3882.705548 2354.224156,3886.420862 2352.687510,3884.494044 2347.327644,3888.736666 2351.205648,3893.591658 2350.310955,3894.302497 2354.334785,3899.320389 2373.836584,3883.864158"/>
    <poly id="1035501470" type="building.hotel" color="255,230,230" fill="1" layer="-1.00" shape="2454.931355,3924.059259 2450.098455,3917.862409 2453.540036,3915.200189 2447.764347,3907.794464 2457.002406,3900.634477 2467.619840,3914.236843 2454.931355,3924.059259"/>
    <poly id="1035501471" type="building.hotel" color="255,230,230" fill="1" layer="-1.00" shape="2448.256366,3901.264374 2443.423728,3895.078624 2446.865318,3892.416401 2441.080754,3885.010902 2450.327689,3877.850687 2460.936028,3891.442171 2448.256366,3901.264374"/>
    <poly id="1035501472" type="natural.water" color="181,209,209" fill="1" layer="-4.00" shape="2435.370606,3872.795718 2430.877763,3867.090017 2437.950741,3861.560947 2442.443582,3867.266651 2435.370606,3872.795718"/>
    <poly id="1035501473" type="building.hotel" color="255,230,230" fill="1" layer="-1.00" shape="2414.091903,3877.092857 2416.723994,3875.006077 2423.299153,3883.202313 2418.782220,3886.790870 2416.486823,3883.928147 2407.904465,3890.738647 2409.815775,3893.122435 2403.483455,3898.155525 2401.114723,3895.194712 2397.753109,3897.866054 2393.729584,3892.859240 2396.578559,3890.589363 2394.137046,3887.552650 2398.236774,3884.285430 2400.733354,3887.398489 2402.870227,3885.701632 2400.300593,3882.501574 2405.521052,3878.351309 2408.182280,3881.671212 2410.666634,3879.699167 2408.188319,3876.607854 2411.558799,3873.936295 2414.091903,3877.092857"/>
    <poly id="1035501474" type="building.hotel" color="255,230,230" fill="1" layer="-1.00" shape="2383.838039,3902.223067 2386.470114,3900.136278 2393.045287,3908.332490 2388.528381,3911.921065 2386.232979,3909.058350 2377.650949,3915.879980 2379.561986,3918.252664 2373.229702,3923.285779 2370.852111,3920.325196 2367.490796,3923.007648 2363.466983,3917.989751 2366.315942,3915.719863 2363.874424,3912.683159 2367.982982,3909.415701 2370.479567,3912.528752 2372.616428,3910.831886 2370.046789,3907.631837 2375.267217,3903.481552 2377.928451,3906.801446 2380.403936,3904.829612 2377.934470,3901.738087 2381.296076,3899.066736 2383.838039,3902.223067"/>
    <poly id="1035501475" type="building.hotel" color="255,230,230" fill="1" layer="-1.00" shape="2412.842286,3934.362823 2409.143356,3929.581044 2411.116447,3928.065948 2404.725844,3919.809581 2402.118109,3921.806927 2397.860743,3916.306311 2400.764223,3914.090587 2398.429519,3911.073405 2405.392065,3905.735829 2406.445270,3907.108487 2410.330599,3904.124232 2425.949849,3924.296666 2412.842286,3934.362823"/>
    <poly id="1035501476" type="building.hotel" color="255,230,230" fill="1" layer="-1.00" shape="2431.042624,3947.586417 2436.857598,3943.121481 2434.779434,3940.442072 2442.463211,3934.542388 2444.294541,3936.917083 2449.083696,3933.232891 2443.324887,3925.793437 2439.952474,3928.387308 2438.103156,3926.001961 2441.649307,3923.270495 2439.561175,3920.546921 2431.859679,3926.447051 2435.942126,3931.685579 2433.029790,3933.901513 2431.527752,3931.940505 2434.074070,3929.966914 2431.554803,3926.654551 2422.847932,3933.090638 2425.447718,3936.434291 2428.255474,3934.287596 2429.762197,3936.081933 2426.647898,3938.369549 2422.629926,3933.229341 2418.900916,3936.087536 2422.920279,3941.283225 2421.025205,3942.729743 2425.547917,3948.567931 2429.468090,3945.560605 2431.042624,3947.586417"/>
    <poly id="1035502593" type="amenity.parking" color="184,184,179" fill="1" layer="-1.00" shape="2550.422811,3688.638656 2565.804738,3703.931747 2567.103903,3705.220543 2488.181178,3768.798817 2473.940806,3750.978985 2550.422811,3688.638656"/>
    <poly id="1035502594" type="building.commercial" color="255,230,230" fill="1" layer="-1.00" shape="2549.647358,3739.412199 2558.672092,3732.213271 2562.567460,3737.056818 2555.201874,3742.937303 2568.332703,3759.263856 2593.157375,3739.466718 2580.520235,3723.749567 2577.966630,3725.789910 2567.661353,3712.979043 2553.164193,3724.534286 2554.453428,3726.134227 2545.020336,3733.654280 2549.647358,3739.412199"/>
    <poly id="1035502595" type="building.commercial" color="255,230,230" fill="1" layer="-1.00" shape="2535.407405,3741.067813 2541.304013,3748.348433 2530.560696,3756.967245 2534.300000,3761.592616 2520.195561,3772.904920 2533.808453,3789.730112 2517.185637,3803.070799 2491.988956,3771.912378 2523.471815,3746.651915 2525.437354,3749.078785 2535.407405,3741.067813"/>
    <poly id="1035508056" type="building.yes" color="255,230,230" fill="1" layer="-1.00" shape="2240.421970,4093.645185 2234.731258,4091.045304 2239.175762,4081.395916 2244.875333,4083.995579 2240.421970,4093.645185"/>
    <poly id="1035508058" type="amenity.parking" color="184,184,179" fill="1" layer="-1.00" shape="2215.678018,4057.590659 2253.297039,4074.324201 2259.757318,4059.916385 2222.138249,4043.182811 2215.678018,4057.590659"/>
    <poly id="1035508060" type="leisure.park" color="207,245,201" fill="0" layer="-2.00" shape="2361.375633,4079.176574 2360.570187,4080.973324 2359.900881,4082.899904 2359.273385,4085.080817 2359.242736,4087.746433 2361.183192,4125.938367 2360.625965,4130.216088 2358.917510,4134.511555 2356.631544,4138.033145 2354.022871,4140.696748 2349.158048,4144.183039 2338.948567,4152.511183 2336.939714,4155.070931 2334.407768,4160.441880 2332.746938,4164.869403 2330.682330,4170.506229 2328.429575,4173.938168 2325.337184,4177.801984 2322.597170,4180.879721 2318.504254,4184.057992 2314.036064,4186.401803 2309.990243,4187.924471 2301.332493,4190.650899 2296.621932,4192.867553 2292.029902,4195.925108 2288.000974,4199.534829 2281.922575,4205.849680 2276.155723,4212.223346 2271.732401,4216.709040 2266.849951,4220.195827 2261.810269,4223.064760 2257.198464,4224.979167 2252.399804,4226.154324 2247.106647,4226.686775 2242.544097,4226.679042 2237.216765,4226.201933 2231.578401,4225.332900 2211.695972,4222.389408 2117.121760,4208.073126 2126.151631,4189.814397 2140.197408,4161.381130 2197.169486,4039.856110 2210.906517,4021.346210"/>
    <poly id="1035508061" type="building.yes" color="255,230,230" fill="1" layer="-1.00" shape="2250.023556,4055.419223 2253.905187,4046.638931 2262.343456,4050.346917 2258.461540,4059.116107 2250.023556,4055.419223"/>
    <poly id="1035508062" type="amenity.parking" color="184,184,179" fill="1" layer="-1.00" shape="2222.758024,4041.401807 2239.606645,4048.762907 2245.524780,4035.345785 2228.675861,4027.973576 2222.758024,4041.401807"/>
    <poly id="1035508064" type="building.yes" color="255,230,230" fill="1" layer="-1.00" shape="2249.627919,4049.533163 2287.621866,3984.746396 2246.294909,3974.901012 2241.972512,3973.876827 2214.329775,4022.903689 2212.718273,4025.764401 2226.529522,4030.703350 2237.229937,4034.532244 2249.627919,4049.533163"/>
    <poly id="1035508064#1" type="tourism.museum" color="207,245,201" fill="1" layer="-2.00" shape="2249.627919,4049.533163 2287.621866,3984.746396 2246.294909,3974.901012 2241.972512,3973.876827 2214.329775,4022.903689 2212.718273,4025.764401 2226.529522,4030.703350 2237.229937,4034.532244 2249.627919,4049.533163"/>
    <poly id="1035508065" type="natural.water" color="181,209,209" fill="1" layer="-4.00" shape="2288.618925,3979.991296 2285.173912,3975.092168 2284.142343,3974.229745 2283.186102,3973.898403 2274.431093,3973.107460 2273.542946,3973.018690 2272.694291,3972.384856 2265.824315,3963.740878 2265.151339,3963.047124 2264.423900,3962.654530 2263.531023,3962.377120 2248.071046,3961.998582 2247.483693,3962.246482 2246.964437,3962.736954 2246.625037,3963.333951 2246.344879,3964.173740 2246.294909,3974.901012 2287.621866,3984.746396 2288.618925,3979.991296"/>
    <poly id="1035566747" type="building.yes" color="255,230,230" fill="1" layer="-1.00" shape="2241.189886,4051.487990 2243.085341,4047.232222 2251.541879,4050.961945 2249.655274,4055.217490 2241.189886,4051.487990"/>
    <poly id="1035566753" type="amenity.shelter" color="237,199,199" fill="1" layer="-1.00" shape="2343.289360,4146.850623 2341.334093,4142.358282 2345.055655,4140.621687 2347.383377,4139.119890 2351.051452,4136.662909 2352.609156,4134.836202 2354.215442,4132.119995 2355.187570,4129.197610 2355.664506,4126.665156 2355.455558,4121.862563 2360.272920,4121.430938 2360.490719,4126.233309 2359.998203,4130.265130 2358.441324,4134.245900 2356.348187,4137.684933 2353.823877,4140.179869 2349.437930,4143.332156 2346.945887,4144.993520 2343.289360,4146.850623"/>
    <poly id="1035566753#1" type="building.yes" color="255,230,230" fill="1" layer="-1.00" shape="2343.289360,4146.850623 2341.334093,4142.358282 2345.055655,4140.621687 2347.383377,4139.119890 2351.051452,4136.662909 2352.609156,4134.836202 2354.215442,4132.119995 2355.187570,4129.197610 2355.664506,4126.665156 2355.455558,4121.862563 2360.272920,4121.430938 2360.490719,4126.233309 2359.998203,4130.265130 2358.441324,4134.245900 2356.348187,4137.684933 2353.823877,4140.179869 2349.437930,4143.332156 2346.945887,4144.993520 2343.289360,4146.850623"/>
    <poly id="1035567590" type="building.yes" color="255,230,230" fill="1" layer="-1.00" shape="2292.830415,3960.687712 2293.747869,3948.162134 2261.720097,3933.608842 2261.128062,3948.158215 2273.575128,3949.211901 2292.830415,3960.687712"/>
    <poly id="1035567590#1" type="tourism.information" color="207,245,201" fill="1" layer="-2.00" shape="2292.830415,3960.687712 2293.747869,3948.162134 2261.720097,3933.608842 2261.128062,3948.158215 2273.575128,3949.211901 2292.830415,3960.687712"/>
    <poly id="1035567591" type="building.yes" color="255,230,230" fill="1" layer="-1.00" shape="2286.372108,3920.754741 2312.134388,3932.400593 2303.510044,3951.315114 2292.434507,3946.307456 2295.045863,3940.568091 2280.359154,3933.929920 2286.372108,3920.754741"/>
    <poly id="1035567591#1" type="tourism.information" color="207,245,201" fill="1" layer="-2.00" shape="2286.372108,3920.754741 2312.134388,3932.400593 2303.510044,3951.315114 2292.434507,3946.307456 2295.045863,3940.568091 2280.359154,3933.929920 2286.372108,3920.754741"/>
    <poly id="1035571568" type="building.yes" color="255,230,230" fill="1" layer="-1.00" shape="2849.152711,3635.730143 2847.322853,3633.766156 2840.822466,3626.778016 2848.503694,3619.690738 2850.374271,3617.967352 2858.704791,3626.930586 2849.152711,3635.730143"/>
    <poly id="1035571572" type="building.yes" color="255,230,230" fill="1" layer="-1.00" shape="2845.262585,3650.228601 2850.374005,3648.790615 2849.032047,3644.016355 2843.920347,3645.443245 2845.262585,3650.228601"/>